backend/app/cases/case2736sp.m
function mpc = case2736sp
%CASE2736SP  Power flow data for Polish system - summer 2004 peak.
%   Please see 'help caseformat' for details on the case file format.
%
%   This case represents the Polish 400, 220 and 110 kV networks during
%   summer 2004 peak conditions. Multiple centrally dispatchable
%   generators at a bus have not been aggregated. Generators that are
%   not centrally dispatchable in the Polish energy market are given a
%   cost of zero.
%
%   This data was graciously provided by, and is distributed with the
%   permission of, Roman Korab <roman.korab@polsl.pl>.

%   MATPOWER
%   $Id: case2736sp.m,v 1.1 2007/09/07 17:44:09 ray Exp $

%% MATPOWER Case Format : Version 2
mpc.version = '2';

%%-----  Power Flow Data  -----%%
%% system MVA base
mpc.baseMVA = 100;

%% bus data
%	bus_i	type	Pd	Qd	Gs	Bs	area	Vm	Va	baseKV	zone	Vmax	Vmin	lam_P	lam_Q	mu_Vmax	mu_Vmin
mpc.bus = [
	1	1	0	0	0	0	1	1.1010186	36.775787	220	1	1.11	0.95	97.9642	0.1737	0.0000	0.0000;
	2	1	0	0	0	0	1	1.1060162	38.502827	220	1	1.11	0.95	97.5886	0.0592	0.0000	0.0000;
	3	1	0	0	0	0	1	1.0848541	13.549052	220	1	1.11	0.95	110.9086	0.1409	0.0000	0.0000;
	4	1	0	0	0	0	1	1.092332	32.518852	220	1	1.11	0.95	100.0063	0.4639	0.0000	0.0000;
	5	1	0	0	0	0	1	1.092363	32.517423	220	1	1.11	0.95	100.0073	0.4634	0.0000	0.0000;
	6	1	0	0	0	0	1	1.0653306	22.234545	220	1	1.11	0.95	104.7833	0.8183	0.0000	0.0000;
	7	1	0	0	0	0	1	1.0654455	22.247039	220	1	1.11	0.95	104.7745	0.8156	0.0000	0.0000;
	8	1	0	0	0	0	1	1.0256415	25.401189	400	1	1.05	0.95	103.5752	0.3513	0.0000	0.0000;
	9	1	0	0	0	0	1	1.0256531	25.407157	400	1	1.05	0.95	103.5718	0.3500	0.0000	0.0000;
	10	1	0	0	0	0	1	1.0586771	21.759947	220	1	1.11	0.95	105.6057	1.0277	0.0000	0.0000;
	11	1	0	0	0	0	1	1.058595	21.754988	220	1	1.11	0.95	105.6080	1.0297	0.0000	0.0000;
	12	1	0	0	0	0	1	1.0585464	21.761505	220	1	1.11	0.95	105.6066	1.0315	0.0000	0.0000;
	13	1	0	0	0	0	1	1.0585095	21.754125	220	1	1.11	0.95	105.6077	1.0320	0.0000	0.0000;
	14	1	0	0	0	0	1	1.0183879	26.785477	400	1	1.05	0.95	102.9672	0.6071	0.0000	0.0000;
	15	1	0	0	0	0	1	1.0315259	22.695731	400	1	1.05	0.95	104.4832	0.0632	0.0000	0.0000;
	16	1	0	0	0	0	1	1.0315259	22.695731	400	1	1.05	0.95	104.4832	0.0632	0.0000	0.0000;
	17	2	0	0	0	0	1	1.0932112	16.45159	220	1	1.11	0.95	108.4499	0.1084	0.0000	0.0000;
	18	1	0	0	0	0	1	1.0932634	16.451047	220	1	1.11	0.95	108.4483	0.1077	0.0000	0.0000;
	19	1	0	0	0	0	1	1.096849	33.519934	220	1	1.11	0.95	99.4431	0.3577	0.0000	0.0000;
	20	1	0	0	0	0	1	1.0968889	33.522277	220	1	1.11	0.95	99.4429	0.3572	0.0000	0.0000;
	21	1	0	0	0	0	1	1.0778181	20.631124	220	1	1.11	0.95	105.9001	0.5847	0.0000	0.0000;
	22	1	0	0	0	0	1	1.0778181	20.631124	220	1	1.11	0.95	105.9001	0.5847	0.0000	0.0000;
	23	1	0	0	0	0	1	1.0563162	21.749861	220	1	1.11	0.95	105.5971	1.0403	0.0000	0.0000;
	24	1	0	0	0	0	1	1.0981385	35.282073	220	1	1.11	0.95	98.8433	0.2741	0.0000	0.0000;
	25	1	0	0	0	0	1	1.0325941	25.080263	400	1	1.05	0.95	103.8800	0.3703	0.0000	0.0000;
	26	2	61.358	72.054	0	0	1	1.11	37.105871	220	1	1.11	0.95	97.7882	0.0000	1044.8801	0.0000;
	27	2	84.861	122.06	0	0	1	1.11	38.794264	220	1	1.11	0.95	97.4519	0.0000	1601.4174	0.0000;
	28	3	49	74	0	0	1	1.0461868	36.029099	400	1	1.05	0.95	98.6073	-0.0008	0.0000	0.0000;
	29	2	49	74	0	0	1	1.0461977	36.03466	400	1	1.05	0.95	98.6040	-0.0000	0.0000	0.0000;
	30	1	0	0	0	0	1	1.0661645	21.34895	220	1	1.11	0.95	105.6749	0.8355	0.0000	0.0000;
	31	1	0	0	0	0	1	1.0438875	34.595074	400	1	1.05	0.95	98.8892	-0.0693	0.0000	0.0000;
	32	1	0	0	0	0	1	1.0557975	21.446015	220	1	1.11	0.95	105.8196	1.0971	0.0000	0.0000;
	33	1	0	0	0	0	1	1.0992548	30.103534	220	1	1.11	0.95	100.8633	0.2948	0.0000	0.0000;
	34	1	0	0	0	0	1	1.0766806	27.272544	220	2	1.11	0.95	101.9122	-0.3204	0.0000	0.0000;
	35	1	0	0	0	0	1	1.0798203	27.673736	220	2	1.11	0.95	102.0744	-0.6743	0.0000	0.0000;
	36	1	0	0	0	0	1	1.0876123	28.64882	220	2	1.11	0.95	101.3876	-0.8651	0.0000	0.0000;
	37	1	0	0	0	0	1	1.0876009	28.646874	220	2	1.11	0.95	101.3886	-0.8649	0.0000	0.0000;
	38	1	0	0	0	0	1	1.0668339	26.033164	220	2	1.11	0.95	102.7618	-0.4427	0.0000	0.0000;
	39	1	0	0	0	0	1	1.11	28.98362	220	2	1.11	0.95	101.1082	-3.0865	18045.9803	0.0000;
	40	1	0	0	0	0	1	1.109887	28.984018	220	2	1.11	0.95	101.1098	-3.0744	0.0000	0.0000;
	41	1	0	0	0	0	1	1.0237808	29.189245	400	2	1.05	0.95	101.1345	-2.0956	0.0000	0.0000;
	42	2	25	0	0	0	1	1.0911339	27.827571	220	2	1.11	0.95	101.8427	-0.1316	0.0000	0.0000;
	43	2	26	0	0	0	1	1.0910418	27.846018	220	2	1.11	0.95	101.8368	-0.1325	0.0000	0.0000;
	44	2	25	0	0	0	1	1.0274551	28.252061	400	2	1.05	0.95	102.0500	-0.0378	0.0000	0.0000;
	45	1	0	0	0	0	1	1.0274089	28.249417	400	2	1.05	0.95	102.0499	-0.0374	0.0000	0.0000;
	46	1	0	0	0	0	1	1.1065267	28.489454	220	2	1.11	0.95	101.4510	-2.8780	0.0000	0.0000;
	47	1	0	0	0	0	1	1.0378593	25.850056	400	2	1.05	0.95	102.2308	-0.8351	0.0000	0.0000;
	48	1	0	0	0	0	1	1.037829	25.84432	400	2	1.05	0.95	102.2336	-0.8342	0.0000	0.0000;
	49	1	0	0	0	0	1	1.0341541	27.739862	400	2	1.05	0.95	102.0681	-0.1569	0.0000	0.0000;
	50	1	0	0	0	0	1	1.0744468	27.089094	220	2	1.11	0.95	102.0731	-0.4925	0.0000	0.0000;
	51	1	0	0	0	0	1	1.0744293	27.091895	220	2	1.11	0.95	102.0731	-0.4924	0.0000	0.0000;
	52	1	0	0	0	0	1	1.0381233	28.457244	400	2	1.05	0.95	101.6773	-0.7629	0.0000	0.0000;
	53	1	0	0	0	0	1	1.0381438	28.459291	400	2	1.05	0.95	101.6757	-0.7648	0.0000	0.0000;
	54	2	13	0	0	0	1	1.092432	29.660532	220	2	1.11	0.95	100.9266	-1.0086	0.0000	0.0000;
	55	2	13	0	0	0	1	1.0923941	29.657448	220	2	1.11	0.95	100.9250	-1.0101	0.0000	0.0000;
	56	2	13	0	0	0	1	1.0448325	29.371186	400	2	1.05	0.95	101.1741	-1.1458	0.0000	0.0000;
	57	2	26	0	0	0	1	1.0448051	29.367657	400	2	1.05	0.95	101.1759	-1.1461	0.0000	0.0000;
	58	2	89.067	40	0	0	1	1.0849742	27.40234	220	2	1.11	0.95	102.0281	-0.2262	0.0000	0.0000;
	59	1	0	0	0	0	1	1.0849851	27.403911	220	2	1.11	0.95	102.0268	-0.2267	0.0000	0.0000;
	60	1	0	0	0	0	1	1.10181	28.422003	220	2	1.11	0.95	101.4486	-2.4534	0.0000	0.0000;
	61	1	0	0	0	0	1	1.0925329	27.376057	220	2	1.11	0.95	102.1670	-0.6982	0.0000	0.0000;
	62	1	0	0	0	0	1	1.0924964	27.373267	220	2	1.11	0.95	102.1674	-0.6941	0.0000	0.0000;
	63	1	0	0	0	0	1	1.0484928	28.281312	400	2	1.05	0.95	101.4167	-1.0744	0.0000	0.0000;
	64	1	0	0	0	0	1	1.048443	28.269845	400	2	1.05	0.95	101.4211	-1.0730	0.0000	0.0000;
	65	1	0	0	0	0	1	1.08105	27.580632	220	2	1.11	0.95	101.8675	-0.6568	0.0000	0.0000;
	66	1	0	0	0	0	1	1.0825042	27.745917	220	2	1.11	0.95	101.7568	-0.6842	0.0000	0.0000;
	67	1	0	0	0	0	1	1.0750296	27.807377	220	2	1.11	0.95	101.7225	-0.4651	0.0000	0.0000;
	68	1	0	0	0	0	1	1.1010761	32.590465	220	3	1.11	0.95	99.8077	-0.3688	0.0000	0.0000;
	69	1	10.327	0	0	0	1	1.0960299	29.336414	220	3	1.11	0.95	101.2532	-0.5368	0.0000	0.0000;
	70	1	8.032	3.714	0	0	1	1.0958743	29.343331	220	3	1.11	0.95	101.2506	-0.5330	0.0000	0.0000;
	71	1	0	0	0	0	1	1.0988119	32.340582	220	3	1.11	0.95	99.5961	0.0929	0.0000	0.0000;
	72	1	0	0	0	0	1	1.0988429	32.352565	220	3	1.11	0.95	99.5928	0.0917	0.0000	0.0000;
	73	1	0	0	0	0	1	1.0958718	32.07566	220	3	1.11	0.95	99.7104	0.0192	0.0000	0.0000;
	74	1	0	0	0	0	1	1.0958515	32.070879	220	3	1.11	0.95	99.7113	0.0193	0.0000	0.0000;
	75	1	0	0	0	0	1	1.0981431	30.779823	220	3	1.11	0.95	100.6839	0.1752	0.0000	0.0000;
	76	1	0	0	0	0	1	1.0980313	30.772798	220	3	1.11	0.95	100.6881	0.1774	0.0000	0.0000;
	77	2	27	70	0	0	1	1.1017006	33.163979	220	3	1.11	0.95	99.2188	0.0000	0.0000	0.0000;
	78	2	18.7	42	0	0	1	1.1001979	33.206703	220	3	1.11	0.95	99.2865	0.0000	0.0000	0.0000;
	79	1	4.934	0.817	0	0	1	1.0917918	31.874096	220	3	1.11	0.95	100.0821	0.2170	0.0000	0.0000;
	80	1	0	0	0	0	1	1.0918096	31.875195	220	3	1.11	0.95	100.0813	0.2168	0.0000	0.0000;
	81	2	18	57	0	0	1	1.0324377	32.199744	400	3	1.05	0.95	99.4311	-0.0467	0.0000	0.0000;
	82	1	0	0	0	0	1	1.088144	31.187203	220	3	1.11	0.95	99.9377	-0.6237	0.0000	0.0000;
	83	1	0	0	0	0	1	1.0979531	31.585593	220	3	1.11	0.95	100.0804	0.0223	0.0000	0.0000;
	84	1	0	0	0	0	1	1.0979533	31.590664	220	3	1.11	0.95	100.0786	0.0222	0.0000	0.0000;
	85	1	44.864	-6.4	0	0	1	1.101997	32.578494	220	3	1.11	0.95	99.7311	-0.3991	0.0000	0.0000;
	86	1	0	0	0	0	1	1.1019728	32.573278	220	3	1.11	0.95	99.7331	-0.3985	0.0000	0.0000;
	87	1	0	0	0	0	1	1.0921611	31.890439	220	3	1.11	0.95	99.8837	0.1014	0.0000	0.0000;
	88	1	0	0	0	0	1	1.0921486	31.896061	220	3	1.11	0.95	99.8819	0.1022	0.0000	0.0000;
	89	1	0	0	0	0	1	1.1032657	33.033004	220	3	1.11	0.95	99.5000	-0.4139	0.0000	0.0000;
	90	1	0	0	0	0	1	1.103263	33.028595	220	3	1.11	0.95	99.5022	-0.4161	0.0000	0.0000;
	91	1	0	0	0	0	1	1.0475653	34.208064	400	3	1.05	0.95	99.2147	-0.2518	0.0000	0.0000;
	92	1	0	0	0	0	1	1.0475601	34.20635	400	3	1.05	0.95	99.2150	-0.2518	0.0000	0.0000;
	93	1	0	0	0	0	1	1.0935069	31.482247	220	3	1.11	0.95	100.0665	0.0637	0.0000	0.0000;
	94	1	0	0	0	0	1	1.0935303	31.477652	220	3	1.11	0.95	100.0682	0.0640	0.0000	0.0000;
	95	1	0	0	0	0	1	1.0927523	31.68528	220	3	1.11	0.95	100.0032	-0.1863	0.0000	0.0000;
	96	1	0	0	0	0	1	1.0927385	31.682752	220	3	1.11	0.95	100.0027	-0.1888	0.0000	0.0000;
	97	2	12.49	3.696	0	0	1	1.0988887	32.455083	220	3	1.11	0.95	99.6560	-0.2413	0.0000	0.0000;
	98	1	17.327	6.126	0	0	1	1.0988852	32.448472	220	3	1.11	0.95	99.6584	-0.2434	0.0000	0.0000;
	99	1	0	0	0	0	1	1.0960777	29.360785	220	3	1.11	0.95	101.2403	-0.5372	0.0000	0.0000;
	100	1	0	0	0	0	1	1.0960847	29.360593	220	3	1.11	0.95	101.2400	-0.5362	0.0000	0.0000;
	101	1	0	0	0	0	1	1.091473	30.406145	220	3	1.11	0.95	100.9840	0.3400	0.0000	0.0000;
	102	1	0	0	0	0	1	1.0914416	30.406439	220	3	1.11	0.95	100.9833	0.3405	0.0000	0.0000;
	103	2	14	40	0	0	1	1.0995351	31.562811	220	3	1.11	0.95	100.1083	0.0000	0.0000	0.0000;
	104	2	0	0	0	0	1	1.0994826	31.535777	220	3	1.11	0.95	100.1174	0.0013	0.0000	0.0000;
	105	2	7	18	0	0	1	1.0951885	31.964706	220	3	1.11	0.95	99.8094	0.0000	0.0000	0.0000;
	106	2	0	0	0	0	1	1.095137	31.962104	220	3	1.11	0.95	99.8116	0.0000	0.0000	0.0000;
	107	1	0	13.892	0	0	1	1.0993639	31.893822	220	3	1.11	0.95	99.9190	-0.5043	0.0000	0.0000;
	108	1	73.779	8.097	0	0	1	1.0993779	31.884324	220	3	1.11	0.95	99.9214	-0.5078	0.0000	0.0000;
	109	1	0	0	0	0	1	1.0935543	31.15097	220	3	1.11	0.95	100.6245	0.0315	0.0000	0.0000;
	110	1	0	0	0	0	1	1.0870297	31.776981	220	3	1.11	0.95	100.2389	0.3415	0.0000	0.0000;
	111	1	0	0	0	0	1	1.0870594	31.777527	220	3	1.11	0.95	100.2383	0.3411	0.0000	0.0000;
	112	1	0	0	0	0	1	1.09294	31.951505	220	3	1.11	0.95	100.0151	0.1993	0.0000	0.0000;
	113	1	0	0	0	0	1	1.0929963	31.960626	220	3	1.11	0.95	100.0113	0.1982	0.0000	0.0000;
	114	1	0	0	0	0	1	1.0414756	31.315391	400	3	1.05	0.95	100.0335	-0.6552	0.0000	0.0000;
	115	2	0	0	0	0	1	1.0996551	32.842783	220	3	1.11	0.95	99.3961	-0.0492	0.0000	0.0000;
	116	2	8	15	0	0	1	1.0996683	32.845139	220	3	1.11	0.95	99.3969	-0.0498	0.0000	0.0000;
	117	2	5.5	10	0	0	1	1.0980564	31.963394	220	3	1.11	0.95	100.0549	-0.0505	0.0000	0.0000;
	118	1	0	0	0	0	1	1.0980782	31.954501	220	3	1.11	0.95	100.0569	-0.0515	0.0000	0.0000;
	119	1	0	0	0	0	1	1.0496156	29.100897	400	3	1.05	0.95	101.1591	-1.1087	0.0000	0.0000;
	120	1	0	0	0	0	1	1.0496497	29.105654	400	3	1.05	0.95	101.1569	-1.1097	0.0000	0.0000;
	121	1	0	0	0	0	1	1.0499794	31.482429	400	3	1.05	0.95	99.9752	-1.1326	0.0000	0.0000;
	122	1	0	0	0	0	1	1.05	31.48757	400	3	1.05	0.95	99.9734	-1.1353	8588.8847	0.0000;
	123	1	0	0	0	0	1	1.0928602	31.085037	220	3	1.11	0.95	100.7429	0.0437	0.0000	0.0000;
	124	2	11	17.5	0	0	1	1.0993585	33.009613	220	3	1.11	0.95	99.3793	-0.0039	0.0000	0.0000;
	125	2	41.353	61.2	0	0	1	1.0992582	33.027058	220	3	1.11	0.95	99.3738	0.0000	0.0000	0.0000;
	126	2	14	33	0	0	1	1.0363847	31.71386	400	3	1.05	0.95	99.7881	-0.2925	0.0000	0.0000;
	127	1	0	0	0	0	1	1.0363725	31.714405	400	3	1.05	0.95	99.7881	-0.2933	0.0000	0.0000;
	128	1	0	0	0	0	1	1.1013954	32.470129	220	3	1.11	0.95	99.7900	-0.3859	0.0000	0.0000;
	129	1	0	0	0	0	1	1.1013663	32.472326	220	3	1.11	0.95	99.7883	-0.3854	0.0000	0.0000;
	130	1	0	0	0	0	1	1.1018746	32.696256	220	3	1.11	0.95	99.6716	-0.3775	0.0000	0.0000;
	131	2	1.5	9	0	0	1	1.1008625	31.132371	220	3	1.11	0.95	100.5080	0.1314	0.0000	0.0000;
	132	2	0	0	0	0	1	1.0980639	30.772568	220	3	1.11	0.95	100.6881	0.1766	0.0000	0.0000;
	133	2	11.215	8.3	0	0	1	1.11	28.903756	220	4	1.11	0.95	101.2167	0.0000	1024.1353	0.0000;
	134	2	10.333	7.7	0	0	1	1.1099315	28.901135	220	4	1.11	0.95	101.2175	0.0022	0.0000	0.0000;
	135	1	0	0	0	0	1	1.0810731	25.003209	220	4	1.11	0.95	100.9562	-2.0325	0.0000	0.0000;
	136	1	0	0	0	0	1	1.0828301	25.845304	220	4	1.11	0.95	100.8377	-1.3233	0.0000	0.0000;
	137	1	0	0	0	0	1	1.0065862	25.629604	400	4	1.05	0.95	101.9525	0.0152	0.0000	0.0000;
	138	1	0	0	0	0	1	1.0066041	25.629594	400	4	1.05	0.95	101.9534	0.0152	0.0000	0.0000;
	139	1	0	0	0	0	1	1.0954147	18.201899	220	4	1.11	0.95	108.0210	0.2680	0.0000	0.0000;
	140	1	0	0	0	0	1	1.1000855	14.087622	220	4	1.11	0.95	110.4893	0.1754	0.0000	0.0000;
	141	1	0	0	0	0	1	1.1000855	14.087622	220	4	1.11	0.95	110.4893	0.1754	0.0000	0.0000;
	142	1	0	0	0	0	1	1.0997348	16.013776	220	4	1.11	0.95	108.7946	0.2311	0.0000	0.0000;
	143	1	0	0	0	0	1	1.0776819	23.706483	220	4	1.11	0.95	101.6440	-1.1967	0.0000	0.0000;
	144	1	0	0	0	0	1	1.0776819	23.706483	220	4	1.11	0.95	101.6440	-1.1967	0.0000	0.0000;
	145	2	0	0	0	0	1	1.1088684	25.389294	220	4	1.11	0.95	103.0118	0.0224	0.0000	0.0000;
	146	2	0	0	0	0	1	1.1088509	25.388257	220	4	1.11	0.95	103.0087	0.0234	0.0000	0.0000;
	147	2	25.553	12.9	0	0	1	1.11	16.402836	220	4	1.11	0.95	108.8237	0.0000	137.4001	0.0000;
	148	1	0	0	0	0	1	1.1099376	16.407478	220	4	1.11	0.95	108.8222	0.0012	0.0000	0.0000;
	149	2	11	12	0	0	1	1.0401684	17.664753	400	4	1.05	0.95	108.5541	-0.1626	0.0000	0.0000;
	150	2	11.922	13.7	0	0	1	1.0401565	17.665765	400	4	1.05	0.95	108.5538	-0.1620	0.0000	0.0000;
	151	1	0	0	0	0	1	1.069707	17.919442	220	4	1.11	0.95	108.6543	0.9181	0.0000	0.0000;
	152	1	0	0	0	0	1	1.0969163	20.247111	220	4	1.11	0.95	105.8110	0.2418	0.0000	0.0000;
	153	1	0	0	0	0	1	1.096869	20.242733	220	4	1.11	0.95	105.8119	0.2429	0.0000	0.0000;
	154	2	19.475	64.3	0	0	1	1.0864589	28.005014	220	4	1.11	0.95	100.2380	-0.0784	0.0000	0.0000;
	155	2	16	33	0	0	1	1.0864932	27.996658	220	4	1.11	0.95	100.2439	-0.0748	0.0000	0.0000;
	156	1	0	0	0	0	1	1.0043516	27.561652	400	4	1.05	0.95	100.5569	-0.0001	0.0000	0.0000;
	157	2	10	25	0	0	1	1.0043458	27.567359	400	4	1.05	0.95	100.5542	0.0000	0.0000	0.0000;
	158	1	0	0	0	0	1	1.0991142	14.121984	220	4	1.11	0.95	110.3861	0.1678	0.0000	0.0000;
	159	1	0	0	0	0	1	1.0991142	14.121984	220	4	1.11	0.95	110.3861	0.1678	0.0000	0.0000;
	160	1	0	0	0	0	1	1.01267	25.596022	400	4	1.05	0.95	101.9142	0.0037	0.0000	0.0000;
	161	1	0	0	0	0	1	1.0153659	26.740571	400	4	1.05	0.95	101.4418	-0.0330	0.0000	0.0000;
	162	1	0	0	0	0	1	1.015348	26.736535	400	4	1.05	0.95	101.4436	-0.0331	0.0000	0.0000;
	163	2	5.54	2.93	0	0	1	1.11	25.217368	220	4	1.11	0.95	103.0649	0.0000	332.7039	0.0000;
	164	2	18.255	11.5	0	0	1	1.11	25.208728	220	4	1.11	0.95	103.0713	0.0000	1279.9799	0.0000;
	165	1	0	0	0	0	1	1.11	25.208728	220	4	1.11	0.95	103.0713	0.0000	0.0000	0.0000;
	166	1	0	0	0	0	1	1.0904059	14.08851	220	4	1.11	0.95	110.8567	0.0398	0.0000	0.0000;
	167	1	0	0	0	0	1	1.0992392	13.957564	220	4	1.11	0.95	110.5522	0.1850	0.0000	0.0000;
	168	1	0	0	0	0	1	1.0934021	17.056139	220	4	1.11	0.95	108.8217	0.1748	0.0000	0.0000;
	169	1	0	0	0	0	1	1.0933821	17.048382	220	4	1.11	0.95	108.8244	0.1745	0.0000	0.0000;
	170	1	0	0	0	0	1	1.0280759	16.561836	400	4	1.05	0.95	108.9582	0.2096	0.0000	0.0000;
	171	1	0	0	0	0	1	1.0280759	16.561836	400	4	1.05	0.95	108.9582	0.2096	0.0000	0.0000;
	172	1	0	0	0	0	1	1.0678718	20.601469	220	4	1.11	0.95	106.2796	0.8193	0.0000	0.0000;
	173	1	0	0	0	0	1	1.0678575	20.607682	220	4	1.11	0.95	106.2773	0.8197	0.0000	0.0000;
	174	1	0	0	0	0	1	1.0911492	20.353191	220	4	1.11	0.95	105.2017	0.4016	0.0000	0.0000;
	175	1	0	0	0	0	1	1.0802612	25.257031	220	4	1.11	0.95	100.9532	-1.9153	0.0000	0.0000;
	176	1	0	0	0	0	1	1.0802658	25.266041	220	4	1.11	0.95	100.9503	-1.9197	0.0000	0.0000;
	177	1	0	0	0	0	1	1.0817101	26.557252	220	4	1.11	0.95	100.4934	-2.2064	0.0000	0.0000;
	178	1	0	0	0	0	1	1.0817101	26.557252	220	4	1.11	0.95	100.4934	-2.2064	0.0000	0.0000;
	179	2	3.13	1.5	0	0	1	1.1099162	21.486859	220	4	1.11	0.95	105.1553	0.0000	0.0000	0.0000;
	180	1	0	0	0	0	1	1.0673522	19.657735	220	4	1.11	0.95	106.7210	0.8008	0.0000	0.0000;
	181	1	0	0	0	0	1	1.0732574	17.553962	220	5	1.11	0.95	107.4384	0.2064	0.0000	0.0000;
	182	1	0	0	0	0	1	1.0910728	16.004643	220	5	1.11	0.95	108.8386	-0.4811	0.0000	0.0000;
	183	1	0	0	0	0	1	1.0378187	17.132387	400	5	1.05	0.95	108.4907	-0.4744	0.0000	0.0000;
	184	1	0	0	0	0	1	1.0378411	17.130523	400	5	1.05	0.95	108.4921	-0.4746	0.0000	0.0000;
	185	1	0	0	0	0	1	1.0320725	19.082224	400	5	1.05	0.95	107.5507	0.1630	0.0000	0.0000;
	186	1	0	0	0	0	1	1.0320886	19.078437	400	5	1.05	0.95	107.5529	0.1627	0.0000	0.0000;
	187	1	0	0	0	0	1	1.0799827	14.890281	220	5	1.11	0.95	109.3264	0.2353	0.0000	0.0000;
	188	1	0	0	0	0	1	1.0800155	14.889078	220	5	1.11	0.95	109.3271	0.2342	0.0000	0.0000;
	189	1	0	0	0	0	1	1.075878	16.448322	220	5	1.11	0.95	107.5941	0.3848	0.0000	0.0000;
	190	1	0	0	0	0	1	1.0758447	16.450906	220	5	1.11	0.95	107.5949	0.3844	0.0000	0.0000;
	191	1	0	0	0	0	1	1.018295	20.502011	400	5	1.05	0.95	106.7351	0.4434	0.0000	0.0000;
	192	1	0	0	0	0	1	1.0770296	18.223772	220	5	1.11	0.95	107.1996	0.2301	0.0000	0.0000;
	193	1	0	0	0	0	1	1.0770074	18.226404	220	5	1.11	0.95	107.1982	0.2309	0.0000	0.0000;
	194	1	0	0	0	0	1	1.0326582	17.355132	400	5	1.05	0.95	108.4815	0.3003	0.0000	0.0000;
	195	1	0	0	0	0	1	1.0326384	17.350893	400	5	1.05	0.95	108.4841	0.3010	0.0000	0.0000;
	196	1	0	0	0	0	1	1.0748167	14.510003	220	5	1.11	0.95	109.8816	0.5588	0.0000	0.0000;
	197	1	0	0	0	0	1	1.074833	14.50988	220	5	1.11	0.95	109.8811	0.5586	0.0000	0.0000;
	198	1	0	0	0	-117	1	1.029285	18.184061	400	5	1.05	0.95	107.8538	-0.3758	0.0000	0.0000;
	199	1	0	0	0	0	1	1.0293306	18.17969	400	5	1.05	0.95	107.8567	-0.3766	0.0000	0.0000;
	200	1	0	0	0	0	1	1.0688896	16.199594	220	5	1.11	0.95	108.4342	0.6220	0.0000	0.0000;
...
];

%% generator data
%	bus	Pg	Qg	Qmax	Qmin	Vg	mBase	status	Pmax	Pmin	Pc1	Pc2	Qc1min	Qc1max	Qc2min	Qc2max	ramp_agc	ramp_10	ramp_30	ramp_q	apf	mu_Pmax	mu_Pmin	mu_Qmax	mu_Qmin
mpc.gen = [
	17	0	0	120	-22	1.07106	241.9	0	210	140	0	0	0	0	0	0	0	0	0	0	0	0.0000	0.0000	0.0000	0.0000;
	17	0	0	120	-22	1.07106	233.2	0	200	140	0	0	0	0	0	0	0	0	0	0	0	0.0000	0.0000	0.0000	0.0000;
	26	370	-19	190	-19	1.09091	415.9	1	370	290	0	0	0	0	0	0	0	0	0	0	0	21.6882	0.0000	0.0000	0.0000;
	27	360	174.108	190	-19	1.09091	407.1	1	360	290	0	0	0	0	0	0	0	0	0	0	0	21.3519	0.0000	0.0000	0.0000;
	27	360	-19	190	-19	1.09091	407.1	1	360	290	0	0	0	0	0	0	0	0	0	0	0	21.3519	0.0000	0.0000	0.0000;
	27	370	-17.3049	190	-19	1.09091	415.9	1	370	290	0	0	0	0	0	0	0	0	0	0	0	21.3519	0.0000	0.0000	0.0000;
	26	370	144.893	190	-19	1.09091	415.9	1	370	290	0	0	0	0	0	0	0	0	0	0	0	21.6882	0.0000	0.0000	0.0000;
	28	370	-19	190	-19	1.02665	415.9	1	370	290	0	0	0	0	0	0	0	0	0	0	0	22.5073	0.0000	0.0000	0.0008;
	28	0	0	190	-19	1.02665	415.9	0	370	290	0	0	0	0	0	0	0	0	0	0	0	0.0000	0.0000	0.0000	0.0000;
	28	370	-19	190	-19	1.02665	415.9	1	370	290	0	0	0	0	0	0	0	0	0	0	0	22.5073	0.0000	0.0000	0.0008;
	29	0	0	190	-19	1.02665	415.9	0	370	290	0	0	0	0	0	0	0	0	0	0	0	0.0000	0.0000	0.0000	0.0000;
	29	370	8.93896	190	-19	1.02665	415.9	1	370	290	0	0	0	0	0	0	0	0	0	0	0	22.5040	0.0000	0.0000	0.0000;
	29	370	-19	190	-19	1.02665	415.9	1	370	290	0	0	0	0	0	0	0	0	0	0	0	22.5040	0.0000	0.0000	0.0000;
	42	130	-34	135	-34	1.09091	253.9	1	215	130	0	0	0	0	0	0	0	0	0	0	0	0.0000	0.2073	0.0000	0.1316;
	42	0	0	130	-34	1.09091	242.7	0	205	135	0	0	0	0	0	0	0	0	0	0	0	0.0000	0.0000	0.0000	0.0000;
	42	110	-34	145	-34	1.09091	267.7	1	225	110	0	0	0	0	0	0	0	0	0	0	0	0.0000	0.2073	0.0000	0.1316;
	43	120	-34	145	-34	1.09091	267.7	1	225	120	0	0	0	0	0	0	0	0	0	0	0	0.0000	0.2132	0.0000	0.1325;
	43	130	-34	145	-34	1.09091	267.7	1	225	130	0	0	0	0	0	0	0	0	0	0	0	0.0000	0.2132	0.0000	0.1325;
	43	0	0	130	-34	1.09091	242.7	0	205	135	0	0	0	0	0	0	0	0	0	0	0	0.0000	0.0000	0.0000	0.0000;
	44	433.768	-47	363	-47	1.01857	646.5	1	535	255	0	0	0	0	0	0	0	0	0	0	0	0.0000	0.0000	0.0000	0.0378;
	44	0	0	348	-100	1.01857	659.3	0	560	250	0	0	0	0	0	0	0	0	0	0	0	0.0000	0.0000	0.0000	0.0000;
	54	129	-1	104	-1	1.09116	247.9	1	225	129	0	0	0	0	0	0	0	0	0	0	0	0.0000	4.4234	0.0000	1.0086;
	55	129	-16	130	-16	1.09114	259.9	1	225	129	0	0	0	0	0	0	0	0	0	0	0	0.0000	4.4250	0.0000	1.0101;
	54	0	0	130	-16	1.09116	259.9	0	225	129	0	0	0	0	0	0	0	0	0	0	0	0.0000	0.0000	0.0000	0.0000;
	56	129	-16	130	-16	1.04039	259.9	1	225	129	0	0	0	0	0	0	0	0	0	0	0	0.0000	4.1759	0.0000	1.1458;
	57	129	-16	130	-16	1.04036	259.9	1	225	129	0	0	0	0	0	0	0	0	0	0	0	0.0000	4.1741	0.0000	1.1461;
	57	0	0	104	-1	1.04036	247.9	0	225	129	0	0	0	0	0	0	0	0	0	0	0	0.0000	0.0000	0.0000	0.0000;
	57	129	-16	130	-16	1.04036	259.9	1	225	129	0	0	0	0	0	0	0	0	0	0	0	0.0000	4.1741	0.0000	1.1461;
	58	48.1	0	30	0	1.08754	66.5	1	48.1	48.1	0	0	0	0	0	0	0	0	0	0	0	102.0281	0.0000	0.0000	0.2262;
	77	225	56.4466	123	-15	1.09091	256.4	1	225	140	0	0	0	0	0	0	0	0	0	0	0	3.9088	0.0000	0.0000	0.0000;
	77	225	56.4466	123	-15	1.09091	256.4	1	225	140	0	0	0	0	0	0	0	0	0	0	0	3.9088	0.0000	0.0000	0.0000;
	78	0	0	123	-15	1.09091	252	0	220	140	0	0	0	0	0	0	0	0	0	0	0	0.0000	0.0000	0.0000	0.0000;
	78	225	0.0284002	123	-15	1.09091	256.4	1	225	140	0	0	0	0	0	0	0	0	0	0	0	3.9765	0.0000	0.0000	0.0000;
	78	225	0.0284002	123	-15	1.09091	256.4	1	225	140	0	0	0	0	0	0	0	0	0	0	0	3.9765	0.0000	0.0000	0.0000;
	81	380	-31	232	-31	1.02168	445.2	1	380	220	0	0	0	0	0	0	0	0	0	0	0	9.4011	0.0000	0.0000	0.0467;
	81	0	0	228	-30	1.02168	434.6	0	370	220	0	0	0	0	0	0	0	0	0	0	0	0.0000	0.0000	0.0000	0.0000;
	97	9	0	1	0	1.08955	12	1	9	9	0	0	0	0	0	0	0	0	0	0	0	99.6560	0.0000	0.0000	0.2413;
	97	6	0	1	0	1.08955	6.1	1	6	6	0	0	0	0	0	0	0	0	0	0	0	99.6560	0.0000	0.0000	0.2413;
	103	225	111.228	123	-15	1.08905	256.4	1	225	134	0	0	0	0	0	0	0	0	0	0	0	7.3283	0.0000	0.0000	0.0000;
	104	0	0	123	-15	1.08898	256.4	0	225	134	0	0	0	0	0	0	0	0	0	0	0	0.0000	0.0000	0.0000	0.0000;
	105	120	44.1891	80	-2	1.0875	144.2	1	120	79	0	0	0	0	0	0	0	0	0	0	0	5.7194	0.0000	0.0000	0.0000;
	106	0	0	80	-2	1.0874	144.2	0	120	79	0	0	0	0	0	0	0	0	0	0	0	0.0000	0.0000	0.0000	0.0000;
	115	0	0	90	-20	1.08993	150	0	120	90	0	0	0	0	0	0	0	0	0	0	0	0.0000	0.0000	0.0000	0.0000;
	116	120	-2	82	-2	1.08992	145.3	1	120	70	0	0	0	0	0	0	0	0	0	0	0	2.2769	0.0000	0.0000	0.0498;
	117	110	0	40	0	1.08788	117	1	110	80	0	0	0	0	0	0	0	0	0	0	0	0.5349	0.0000	0.0000	0.0505;
	124	215	-35	135	-35	1.09093	253.9	1	215	160	0	0	0	0	0	0	0	0	0	0	0	8.2193	0.0000	0.0000	0.0039;
	125	225	76.0784	140	-35	1.09091	265	1	225	140	0	0	0	0	0	0	0	0	0	0	0	8.2138	0.0000	0.0000	0.0000;
	125	215	-35	135	-35	1.09091	253.9	1	215	160	0	0	0	0	0	0	0	0	0	0	0	8.2138	0.0000	0.0000	0.0000;
	126	225	-40	140	-40	1.02511	265	1	225	140	0	0	0	0	0	0	0	0	0	0	0	8.6281	0.0000	0.0000	0.2925;
	126	0	0	137	-40	1.02511	259.2	0	220	160	0	0	0	0	0	0	0	0	0	0	0	0.0000	0.0000	0.0000	0.0000;
	131	125	40	40	-38	1.08591	131.2	1	125	0	0	0	0	0	0	0	0	0	0	0	0	100.4980	0.0000	0.1314	0.0000;
	131	0	0	40	-38	1.08591	131.2	0	125	0	0	0	0	0	0	0	0	0	0	0	0	0.0000	0.0000	0.0000	0.0000;
	132	0	0	40	-38	1.08371	131.2	0	125	0	0	0	0	0	0	0	0	0	0	0	0	0.0000	0.0000	0.0000	0.0000;
	132	0	0	40	-38	1.08371	131.2	0	125	0	0	0	0	0	0	0	0	0	0	0	0	0.0000	0.0000	0.0000	0.0000;
	133	0	0	90	0	1.09091	150	0	120	100	0	0	0	0	0	0	0	0	0	0	0	0.0000	0.0000	0.0000	0.0000;
	133	120	49.9848	90	0	1.09091	150	1	120	100	0	0	0	0	0	0	0	0	0	0	0	8.7867	0.0000	0.0000	0.0000;
	134	120	0	90	0	1.09091	150	1	120	100	0	0	0	0	0	0	0	0	0	0	0	8.7875	0.0000	0.0022	0.0000;
	145	0	0	12	0	1.08954	51.4	0	50	30	0	0	0	0	0	0	0	0	0	0	0	0.0000	0.0000	0.0000	0.0000;
	145	0	0	12	0	1.08954	51.4	0	50	30	0	0	0	0	0	0	0	0	0	0	0	0.0000	0.0000	0.0000	0.0000;
	146	0	0	90	0	1.08953	150	0	120	90	0	0	0	0	0	0	0	0	0	0	0	0.0000	0.0000	0.0000	0.0000;
	147	0	0	149	-48	1.08582	267.4	0	222	90	0	0	0	0	0	0	0	0	0	0	0	0.0000	0.0000	0.0000	0.0000;
	147	0	0	149	-48	1.08582	253.4	0	205	135	0	0	0	0	0	0	0	0	0	0	0	0.0000	0.0000	0.0000	0.0000;
	147	0	0	149	-48	1.08582	253.4	0	205	135	0	0	0	0	0	0	0	0	0	0	0	0.0000	0.0000	0.0000	0.0000;
	147	90	94.0447	149	-48	1.08582	267.4	1	222	90	0	0	0	0	0	0	0	0	0	0	0	0.0000	7.1863	0.0000	0.0000;
	149	90	-23	123	-23	1.02501	253.8	1	222	90	0	0	0	0	0	0	0	0	0	0	0	0.0000	7.4559	0.0000	0.1626;
	150	90	-48	149	-48	1.025	267.4	1	222	90	0	0	0	0	0	0	0	0	0	0	0	0.0000	7.4562	0.0000	0.1620;
	150	0	0	123	-23	1.025	253.8	0	222	90	0	0	0	0	0	0	0	0	0	0	0	0.0000	0.0000	0.0000	0.0000;
	154	235	-53	149	-53	1.09091	278.3	1	235	94	0	0	0	0	0	0	0	0	0	0	0	1.3980	0.0000	0.0000	0.0784;
	154	0	0	149	-53	1.09091	278.3	0	235	94	0	0	0	0	0	0	0	0	0	0	0	0.0000	0.0000	0.0000	0.0000;
	154	261	0	120	0	1.09091	287.3	1	261	104	0	0	0	0	0	0	0	0	0	0	0	1.3980	0.0000	0.0000	0.0784;
	154	0	0	132	-40	1.09091	292.5	0	261	104	0	0	0	0	0	0	0	0	0	0	0	0.0000	0.0000	0.0000	0.0000;
	155	0	0	120	0	1.09091	287.3	0	261	104	0	0	0	0	0	0	0	0	0	0	0	0.0000	0.0000	0.0000	0.0000;
	155	205	-22	117	-22	1.09091	236	1	205	130	0	0	0	0	0	0	0	0	0	0	0	1.4039	0.0000	0.0000	0.0748;
	155	206	-20	109	-20	1.09091	233.1	1	206	120	0	0	0	0	0	0	0	0	0	0	0	1.4039	0.0000	0.0000	0.0748;
	155	0	0	109	-20	1.09091	233.1	0	206	120	0	0	0	0	0	0	0	0	0	0	0	0.0000	0.0000	0.0000	0.0000;
	157	206	28.5083	109	-20	1.00076	233.1	1	206	120	0	0	0	0	0	0	0	0	0	0	0	1.7142	0.0000	0.0000	0.0000;
	163	0	0	104	-23	1.09091	225.4	0	200	150	0	0	0	0	0	0	0	0	0	0	0	0.0000	0.0000	0.0000	0.0000;
	163	200	64.6061	104	-23	1.09091	225.4	1	200	150	0	0	0	0	0	0	0	0	0	0	0	13.8449	0.0000	0.0000	0.0000;
	164	200	10.9272	104	-23	1.09091	225.4	1	200	150	0	0	0	0	0	0	0	0	0	0	0	13.8513	0.0000	0.0000	0.0000;
	164	200	104	104	-23	1.09091	225.4	1	200	150	0	0	0	0	0	0	0	0	0	0	0	13.8513	0.0000	0.0000	0.0000;
	179	170	65.6015	110	0	1.09091	219.5	1	170	170	0	0	0	0	0	0	0	0	0	0	0	105.1553	0.0000	0.0000	0.0000;
	204	179	-60	110	-60	1.025	210.1	1	179	0	0	0	0	0	0	0	0	0	0	0	0	107.0236	0.0000	0.0000	0.0006;
	204	179	110	110	-60	1.025	210.1	1	179	0	0	0	0	0	0	0	0	0	0	0	0	107.0236	0.0000	0.0000	0.0006;
	204	179	-60	110	-60	1.025	210.1	1	179	0	0	0	0	0	0	0	0	0	0	0	0	107.0236	0.0000	0.0000	0.0006;
	205	179	-14.8355	110	-60	1.025	210.1	1	179	0	0	0	0	0	0	0	0	0	0	0	0	107.0237	0.0000	0.0000	0.0000;
	214	35	0	20	0	1.09209	58.5	1	35	35	0	0	0	0	0	0	0	0	0	0	0	106.3528	0.0000	0.0000	0.0000;
	214	0	0	20	0	1.09209	53.9	0	0	0	0	0	0	0	0	0	0	0	0	0	0	0.0000	0.0000	0.0000	0.0000;
	214	0	0	20	0	1.09209	53.9	0	0	0	0	0	0	0	0	0	0	0	0	0	0	0.0000	0.0000	0.0000	0.0000;
	214	10	11.2737	20	0	1.09209	30.5	1	10	10	0	0	0	0	0	0	0	0	0	0	0	106.3528	0.0000	0.0000	0.0000;
	220	1.55	0.72928	1	0	1.08853	2.3	1	1.55	1.55	0	0	0	0	0	0	0	0	0	0	0	102.9820	0.0000	0.0000	0.0000;
	221	1.55	1	1	0	1.07119	2.3	1	1.55	1.55	0	0	0	0	0	0	0	0	0	0	0	102.1784	0.0000	0.1191	0.0000;
	239	7	6	6	0	1.05821	9.8	1	7	7	0	0	0	0	0	0	0	0	0	0	0	108.7679	0.0000	1.0653	0.0000;
	246	370	61.8297	190	-19	1.03937	415.9	1	370	290	0	0	0	0	0	0	0	0	0	0	0	21.8055	0.0000	0.0000	0.0000;
	309	0	0	7	0	1.08081	27.9	0	0	0	0	0	0	0	0	0	0	0	0	0	0	0.0000	0.0000	0.0000	0.0000;
	309	0	0	7	0	1.08081	27.9	0	0	0	0	0	0	0	0	0	0	0	0	0	0	0.0000	0.0000	0.0000	0.0000;
	309	11	7	7	4	1.08081	30.8	1	11	11	0	0	0	0	0	0	0	0	0	0	0	100.5960	0.0000	0.4579	0.0000;
	309	0	0	7	0	1.08081	27.9	0	0	0	0	0	0	0	0	0	0	0	0	0	0	0.0000	0.0000	0.0000	0.0000;
	309	0	0	6	0	1.08081	27.7	0	0	0	0	0	0	0	0	0	0	0	0	0	0	0.0000	0.0000	0.0000	0.0000;
	309	0	0	7	0	1.08081	27.9	0	0	0	0	0	0	0	0	0	0	0	0	0	0	0.0000	0.0000	0.0000	0.0000;
	309	0	0	7	0	1.08081	27.9	0	0	0	0	0	0	0	0	0	0	0	0	0	0	0.0000	0.0000	0.0000	0.0000;
	310	15	15	15	0	1.08142	36.7	1	15	15	0	0	0	0	0	0	0	0	0	0	0	101.0131	0.0000	0.2846	0.0000;
	310	0	0	15	0	1.08142	57	0	0	0	0	0	0	0	0	0	0	0	0	0	0	0.0000	0.0000	0.0000	0.0000;
	311	15	15	15	0	1.0633	36.7	1	15	15	0	0	0	0	0	0	0	0	0	0	0	102.2436	0.0000	0.6692	0.0000;
	311	0	0	15	0	1.0633	57	0	0	0	0	0	0	0	0	0	0	0	0	0	0	0.0000	0.0000	0.0000	0.0000;
	313	30	20	20	0	1.08629	53.9	1	30	30	0	0	0	0	0	0	0	0	0	0	0	100.1466	0.0000	0.4246	0.0000;
	313	0	0	20	0	1.08629	53.9	0	0	0	0	0	0	0	0	0	0	0	0	0	0	0.0000	0.0000	0.0000	0.0000;
	314	0	0	40	0	1.07946	107.7	0	0	0	0	0	0	0	0	0	0	0	0	0	0	0.0000	0.0000	0.0000	0.0000;
	322	2.5	3	3	0	1.08468	4.1	1	2.5	2.5	0	0	0	0	0	0	0	0	0	0	0	100.3025	0.0000	0.4638	0.0000;
	365	43.25	12	12	0	1.08196	47.8	1	43.25	43.25	0	0	0	0	0	0	0	0	0	0	0	105.1480	0.0000	0.1215	0.0000;
	366	43.25	12	12	0	1.06579	47.8	1	43.25	43.25	0	0	0	0	0	0	0	0	0	0	0	106.9522	0.0000	0.5644	0.0000;
	367	43.25	8.7805	12	0	1.08899	47.8	1	43.25	43.25	0	0	0	0	0	0	0	0	0	0	0	104.2165	0.0000	0.0000	0.0000;
	368	43.25	12	12	0	1.08537	47.8	1	43.25	43.25	0	0	0	0	0	0	0	0	0	0	0	106.1289	0.0000	0.5321	0.0000;
	385	140	40.9072	138	-47	1.09091	251.3	1	210	140	0	0	0	0	0	0	0	0	0	0	0	0.0000	5.1947	0.0000	0.0000;
	385	0	0	10	0	1.09091	26.9	0	25	12	0	0	0	0	0	0	0	0	0	0	0	0.0000	0.0000	0.0000	0.0000;
	386	10	7.0916	10	0	1.0782	19.7	1	17	10	0	0	0	0	0	0	0	0	0	0	0	0.0000	4.0011	0.0000	0.0000;
	443	1.5	2	2	0	1.04966	3.6	1	1.5	1.5	0	0	0	0	0	0	0	0	0	0	0	100.0280	0.0000	0.3760	0.0000;
	452	5.21	2	2	0	1.07378	6.1	1	5.21	5.21	0	0	0	0	0	0	0	0	0	0	0	103.9109	0.0000	0.5886	0.0000;
	452	0	0	2	0	1.07378	6.1	0	0	0	0	0	0	0	0	0	0	0	0	0	0	0.0000	0.0000	0.0000	0.0000;
	485	1.4	0.7	0.7	0	1.05018	1.7	1	1.4	1.4	0	0	0	0	0	0	0	0	0	0	0	100.1099	0.0000	0.4896	0.0000;
	536	40	14	14	0	1.06099	53.9	1	40	40	0	0	0	0	0	0	0	0	0	0	0	106.7163	0.0000	1.3714	0.0000;
	536	0	0	14	0	1.06099	34.9	0	0	0	0	0	0	0	0	0	0	0	0	0	0	0.0000	0.0000	0.0000	0.0000;
	536	0	0	14	0	1.06099	34	0	0	0	0	0	0	0	0	0	0	0	0	0	0	0.0000	0.0000	0.0000	0.0000;
	536	0	0	14	0	1.06099	105.9	0	0	0	0	0	0	0	0	0	0	0	0	0	0	0.0000	0.0000	0.0000	0.0000;
	536	0	0	14	0	1.06099	105.9	0	0	0	0	0	0	0	0	0	0	0	0	0	0	0.0000	0.0000	0.0000	0.0000;
	537	25	17.5	17.5	0	1.05485	36.5	1	25	25	0	0	0	0	0	0	0	0	0	0	0	106.9421	0.0000	1.1885	0.0000;
	537	25	17.5	17.5	0	1.05485	35.6	1	25	25	0	0	0	0	0	0	0	0	0	0	0	106.9421	0.0000	1.1885	0.0000;
	537	0	0	17.5	0	1.05485	126.2	0	0	0	0	0	0	0	0	0	0	0	0	0	0	0.0000	0.0000	0.0000	0.0000;
	537	0	0	17.5	0	1.05485	106.4	0	0	0	0	0	0	0	0	0	0	0	0	0	0	0.0000	0.0000	0.0000	0.0000;
	551	1.4	0.7	0.7	0	1.05264	1.7	1	1.4	1.4	0	0	0	0	0	0	0	0	0	0	0	107.6947	0.0000	1.6230	0.0000;
	559	30	5	5	0	1.05731	34.4	1	30	30	0	0	0	0	0	0	0	0	0	0	0	107.1970	0.0000	1.4431	0.0000;
	559	0	0	5	0	1.05731	28.4	0	0	0	0	0	0	0	0	0	0	0	0	0	0	0.0000	0.0000	0.0000	0.0000;
	559	0	0	5	0	1.05731	26.5	0	0	0	0	0	0	0	0	0	0	0	0	0	0	0.0000	0.0000	0.0000	0.0000;
	559	0	0	5	0	1.05731	30.4	0	0	0	0	0	0	0	0	0	0	0	0	0	0	0.0000	0.0000	0.0000	0.0000;
	559	0	0	5	0	1.05731	34.4	0	0	0	0	0	0	0	0	0	0	0	0	0	0	0.0000	0.0000	0.0000	0.0000;
	560	30	5	5	0	1.05563	34.4	1	30	30	0	0	0	0	0	0	0	0	0	0	0	107.0075	0.0000	1.4200	0.0000;
	560	0	0	5	0	1.05563	34.4	0	0	0	0	0	0	0	0	0	0	0	0	0	0	0.0000	0.0000	0.0000	0.0000;
	560	0	0	5	0	1.05563	26.5	0	0	0	0	0	0	0	0	0	0	0	0	0	0	0.0000	0.0000	0.0000	0.0000;
	560	0	0	5	0	1.05563	34.4	0	0	0	0	0	0	0	0	0	0	0	0	0	0	0.0000	0.0000	0.0000	0.0000;
	573	1	4	4	0	1.07878	8.9	1	1	1	0	0	0	0	0	0	0	0	0	0	0	101.2170	0.0000	0.1598	0.0000;
	626	78	0	30	0	1.09062	97.7	1	78	78	0	0	0	0	0	0	0	0	0	0	0	98.9717	0.0000	0.0000	0.1920;
	626	30	0	30	0	1.09062	46.8	1	30	30	0	0	0	0	0	0	0	0	0	0	0	98.9717	0.0000	0.0000	0.1920;
	664	130	57.2913	145	-34	1.09109	267.7	1	225	130	0	0	0	0	0	0	0	0	0	0	0	0.0000	0.8059	0.0000	0.0000;
	665	0	0	145	-34	1.09081	267.7	0	225	130	0	0	0	0	0	0	0	0	0	0	0	0.0000	0.0000	0.0000	0.0000;
	685	150	0	30	0	1.0956	182.5	1	150	150	0	0	0	0	0	0	0	0	0	0	0	100.9386	0.0000	0.0000	0.3032;
	685	50	0	30	0	1.0956	77.5	1	50	50	0	0	0	0	0	0	0	0	0	0	0	100.9386	0.0000	0.0000	0.3032;
	691	2.43	0	1.8	0	1.08826	3.1	1	2.43	2.43	0	0	0	0	0	0	0	0	0	0	0	101.7600	0.0000	0.0000	0.1916;
	716	1.47	0	1.3	0	1.0787	10.1	1	1.47	1.47	0	0	0	0	0	0	0	0	0	0	0	101.3106	0.0000	0.0000	0.3272;
	740	129	-16	130	-16	1.09091	259.9	1	225	129	0	0	0	0	0	0	0	0	0	0	0	0.0000	5.3836	0.0000	0.7237;
	763	86	0	30	0	1.07793	105.4	1	86	86	0	0	0	0	0	0	0	0	0	0	0	100.7861	0.0000	0.0000	0.7184;
	792	1	0.315172	1	0	1.05313	8.4	1	1	1	0	0	0	0	0	0	0	0	0	0	0	102.2924	0.0000	0.0000	0.0000;
	796	68.1	1.91188	23	0	1.06122	71.9	1	68.1	5	0	0	0	0	0	0	0	0	0	0	0	100.8896	0.0000	0.0000	0.0000;
	796	0	0	23	0	1.06122	71.9	0	68.1	5	0	0	0	0	0	0	0	0	0	0	0	0.0000	0.0000	0.0000	0.0000;
	796	0	0	11	0	1.06122	32.9	0	31	16	0	0	0	0	0	0	0	0	0	0	0	0.0000	0.0000	0.0000	0.0000;
	796	0	0	10	0	1.06122	32.6	0	31	16	0	0	0	0	0	0	0	0	0	0	0	0.0000	0.0000	0.0000	0.0000;
	807	0	0	10	0	1.08198	125.4	0	125	84	0	0	0	0	0	0	0	0	0	0	0	0.0000	0.0000	0.0000	0.0000;
	808	92	0	10	0	1.08715	125.4	1	125	92	0	0	0	0	0	0	0	0	0	0	0	0.0000	11.7016	0.0000	0.2155;
	845	15	0	8.1	0	1.07142	33	1	15	15	0	0	0	0	0	0	0	0	0	0	0	101.4845	0.0000	0.0000	0.3422;
	845	15	0	8.1	0	1.07142	33	1	15	15	0	0	0	0	0	0	0	0	0	0	0	101.4845	0.0000	0.0000	0.3422;
	845	0	0	0	0	1.07142	19	0	0	0	0	0	0	0	0	0	0	0	0	0	0	0.0000	0.0000	0.0000	0.0000;
	845	0	0	0	0	1.07142	19	0	0	0	0	0	0	0	0	0	0	0	0	0	0	0.0000	0.0000	0.0000	0.0000;
	877	35	12.9886	41.2	0	1.08527	87.7	1	35	35	0	0	0	0	0	0	0	0	0	0	0	99.6941	0.0000	0.0000	0.0000;
	900	0	0	45	-10	1.07146	65.8	0	0	0	0	0	0	0	0	0	0	0	0	0	0	0.0000	0.0000	0.0000	0.0000;
	900	50	20.7457	45	-10	1.07146	71.1	1	50	50	0	0	0	0	0	0	0	0	0	0	0	100.4491	0.0000	0.0000	0.0000;
	900	0	0	45	-10	1.07146	71.1	0	0	0	0	0	0	0	0	0	0	0	0	0	0	0.0000	0.0000	0.0000	0.0000;
	975	0	0	110	-40	1.07686	162.2	0	0	0	0	0	0	0	0	0	0	0	0	0	0	0.0000	0.0000	0.0000	0.0000;
	976	100	33.7466	110	-40	1.08609	162.2	1	100	100	0	0	0	0	0	0	0	0	0	0	0	99.8359	0.0000	0.0000	0.0000;
	980	0	0	0	0	1.08643	16.8	0	0	0	0	0	0	0	0	0	0	0	0	0	0	0.0000	0.0000	0.0000	0.0000;
	1001	386	19.2843	240	-32	1.10276	454.5	1	386	220	0	0	0	0	0	0	0	0	0	0	0	8.2033	0.0000	0.0000	0.0000;
	1002	370	51.821	227	-30	1.09091	434.1	1	370	220	0	0	0	0	0	0	0	0	0	0	0	8.2850	0.0000	0.0000	0.0000;
	1006	6	1.447	1.447	0	1.08426	7.1	1	6	6	0	0	0	0	0	0	0	0	0	0	0	99.5548	0.0000	0.2022	0.0000;
	1005	4	0.447	0.447	0	1.08426	4	1	4	4	0	0	0	0	0	0	0	0	0	0	0	99.5534	0.0000	0.2022	0.0000;
	1006	4	0.447	0.447	0	1.08426	5	1	4	4	0	0	0	0	0	0	0	0	0	0	0	99.5548	0.0000	0.2022	0.0000;
	1006	0	0	0	0	1.08426	6	0	0	0	0	0	0	0	0	0	0	0	0	0	0	0.0000	0.0000	0.0000	0.0000;
	1007	0	0	110	-40	1.08332	174.1	0	0	0	0	0	0	0	0	0	0	0	0	0	0	0.0000	0.0000	0.0000	0.0000;
	1013	15	4.8	4.8	0	1.07931	20.6	1	15	15	0	0	0	0	0	0	0	0	0	0	0	99.3353	0.0000	0.1660	0.0000;
	1013	0	0	0	0	1.07931	12.8	0	0	0	0	0	0	0	0	0	0	0	0	0	0	0.0000	0.0000	0.0000	0.0000;
	1013	0	0	0	0	1.07931	12.5	0	0	0	0	0	0	0	0	0	0	0	0	0	0	0.0000	0.0000	0.0000	0.0000;
	1015	0	0	0	0	1.07594	20	0	0	0	0	0	0	0	0	0	0	0	0	0	0	0.0000	0.0000	0.0000	0.0000;
	1015	0	0	0	0	1.07594	19	0	0	0	0	0	0	0	0	0	0	0	0	0	0	0.0000	0.0000	0.0000	0.0000;
	1024	12	18	18	9	1.05936	30	1	12	12	0	0	0	0	0	0	0	0	0	0	0	102.5270	0.0000	0.6994	0.0000;
	1025	0	0	18	9	1.05941	30	0	0	0	0	0	0	0	0	0	0	0	0	0	0	0.0000	0.0000	0.0000	0.0000;
	1026	0	0	14	10.5	1.05936	32.2	0	0	0	0	0	0	0	0	0	0	0	0	0	0	0.0000	0.0000	0.0000	0.0000;
	1113	0	0	37.5	16.8	1.08345	62.5	0	0	0	0	0	0	0	0	0	0	0	0	0	0	0.0000	0.0000	0.0000	0.0000;
	1114	0	0	37.5	7.5	1.07469	62.5	0	0	0	0	0	0	0	0	0	0	0	0	0	0	0.0000	0.0000	0.0000	0.0000;
	1113	50	37.5	37.5	7.5	1.08345	62.5	1	50	50	0	0	0	0	0	0	0	0	0	0	0	100.1524	0.0000	0.0695	0.0000;
	1115	0	0	37.5	16.8	1.08094	62.5	0	0	0	0	0	0	0	0	0	0	0	0	0	0	0.0000	0.0000	0.0000	0.0000;
	1152	17	5.251	5.251	0	1.06515	30.5	1	17	17	0	0	0	0	0	0	0	0	0	0	0	101.6968	0.0000	0.1697	0.0000;
	1152	0	0	0	0	1.06515	6	0	0	0	0	0	0	0	0	0	0	0	0	0	0	0.0000	0.0000	0.0000	0.0000;
	1153	17	5.251	5.251	0	1.06525	30.5	1	17	17	0	0	0	0	0	0	0	0	0	0	0	101.6830	0.0000	0.1664	0.0000;
	1153	0	0	0	0	1.06525	25	0	0	0	0	0	0	0	0	0	0	0	0	0	0	0.0000	0.0000	0.0000	0.0000;
	1154	16	5.25	5.25	0	1.06879	30.5	1	16	16	0	0	0	0	0	0	0	0	0	0	0	101.0285	0.0000	0.0813	0.0000;
	1154	0	0	0	0	1.06879	6	0	0	0	0	0	0	0	0	0	0	0	0	0	0	0.0000	0.0000	0.0000	0.0000;
	1179	70	37.7826	52.5	0	1.08436	87.5	1	70	70	0	0	0	0	0	0	0	0	0	0	0	99.8463	0.0000	0.0000	0.0000;
	1180	0	0	52.5	0	1.07255	87.5	0	0	0	0	0	0	0	0	0	0	0	0	0	0	0.0000	0.0000	0.0000	0.0000;
	1180	0	0	42	16.8	1.07255	65.3	0	0	0	0	0	0	0	0	0	0	0	0	0	0	0.0000	0.0000	0.0000	0.0000;
	1188	50	0	0	0	1.0801	50	1	50	50	0	0	0	0	0	0	0	0	0	0	0	100.0495	0.0000	0.1646	0.0000;
	1246	10	2	2	0	1.07803	16.7	1	10	10	0	0	0	0	0	0	0	0	0	0	0	99.5205	0.0000	0.0913	0.0000;
	1246	0	0	0	0	1.07803	24	0	0	0	0	0	0	0	0	0	0	0	0	0	0	0.0000	0.0000	0.0000	0.0000;
	1247	0	0	0	0	1.06772	14.6	0	0	0	0	0	0	0	0	0	0	0	0	0	0	0.0000	0.0000	0.0000	0.0000;
	1247	0	0	0	0	1.06772	14.6	0	0	0	0	0	0	0	0	0	0	0	0	0	0	0.0000	0.0000	0.0000	0.0000;
...
];

%% branch data
%	fbus	tbus	r	x	b	rateA	rateB	rateC	ratio	angle	status	angmin	angmax	Pf	Qf	Pt	Qt	mu_Sf	mu_St
mpc.branch = [
	7	8	0.00064	0.0305	0	400	400	400	1.0435	-0.6	1	-360	360	-224.8802	-3.3165	225.1908	18.1148	0.0000	0.0000;
	26	28	0.00036	0.02519	0	500	500	500	1.067	0	1	-360	360	80.8393	-24.7042	-80.8156	26.3674	0.0000	0.0000;
	27	29	0.00036	0.02519	0	500	500	500	1.0671	0	1	-360	360	207.6635	-22.8750	-207.5183	33.0370	0.0000	0.0000;
	39	41	0.00034	0.02097	0	500	500	500	1.1102	0	1	-360	360	-19.3662	-114.0225	19.4117	116.8286	0.0000	0.0000;
	42	45	0.00034	0.02097	0	500	500	500	1.0917	0	1	-360	360	-38.2008	-132.5267	38.2656	136.5202	0.0000	0.0000;
	54	56	0.00081	0.03	0	400	400	400	1.0466	0	1	-360	360	18.2506	-3.9997	-18.2480	4.0958	0.0000	0.0000;
	89	91	0.00075	0.02444	-0.00832	330	330	330	1.0553	0	1	-360	360	-92.0549	-4.6479	92.1132	7.4597	0.0000	0.0000;
	90	92	0.00075	0.02469	-0.008	330	330	330	1.0552	0	1	-360	360	-91.3257	-4.2434	91.3830	7.0082	0.0000	0.0000;
	124	127	0.0005	0.02875	-0.016	400	400	400	1.087	0	1	-360	360	80.8750	-87.4852	-80.8049	93.1926	0.0000	0.0000;
	148	149	0.00064	0.0305	0	400	400	400	1.0636	0	1	-360	360	-77.7942	14.2513	77.8309	-12.4996	0.0000	0.0000;
	154	156	0.000232	0.023	0	500	500	500	1.0953	0	1	-360	360	32.9758	-53.7433	-32.9665	54.6727	0.0000	0.0000;
	155	157	0.000232	0.023	0	500	500	500	1.0953	0	1	-360	360	31.9151	-53.5819	-31.9060	54.4911	0.0000	0.0000;
	168	170	0.00035	0.02375	0	500	500	500	1.0767	0	1	-360	360	37.1256	-54.1436	-37.1109	55.1362	0.0000	0.0000;
	182	183	0.00059	0.03093	0	400	400	400	1.0504	0	1	-360	360	-68.5007	5.0459	68.5265	-3.6935	0.0000	0.0000;
	189	191	0.0004	0.03	0	500	500	500	1.0695	3.6	1	-360	360	-27.5825	-40.8752	27.5921	41.5961	0.0000	0.0000;
	2726	156	0.00031	0.00338	0.0992	1386	1386	1386	0	0	1	-360	360	-66.6991	15.5446	66.7141	-25.3929	0.0000	0.0000;
	2726	157	0.00031	0.00338	0.0992	1386	1386	1386	0	0	1	-360	360	-69.6319	15.9934	69.6481	-25.8276	0.0000	0.0000;
	2727	67	0.014341	0.083531	0.126034	385	385	385	0	0	1	-360	360	125.0000	-0.0000	-123.1176	-3.8470	0.0000	0.0000;
	2725	75	0.01219	0.070659	0.117418	412	412	412	0	0	1	-360	360	-174.6808	36.2790	177.9421	-31.5639	0.0000	0.0000;
	2725	104	0.011781	0.07087	0.116838	412	412	412	0	0	1	-360	360	-196.5192	39.2860	200.4857	-29.5610	0.0000	0.0000;
	126	2724	0.001525	0.016837	0.50576	1386	1386	1386	0	0	1	-360	360	434.1790	-13.9201	-431.5000	-10.5040	0.0000	0.0000;
	2728	147	0.001651	0.015909	0.046948	316	316	316	0	0	1	-360	360	88.6360	-23.2964	-88.5248	18.5922	0.0000	0.0000;
	2728	148	0.001651	0.015909	0.046948	316	316	316	0	0	1	-360	360	88.0550	-22.8086	-87.9455	18.0888	0.0000	0.0000;
	2729	47	0.00188	0.02287	0.6432	831	831	831	0	0	1	-360	360	-154.0283	-94.3021	154.5229	32.1618	0.0000	0.0000;
	2729	48	0.00188	0.02287	0.6432	831	831	831	0	0	1	-360	360	-153.5537	-94.2209	154.0455	32.0484	0.0000	0.0000;
	81	2723	0.002769	0.031162	0.89824	1386	1386	1386	0	0	1	-360	360	178.4322	-54.6643	-177.6040	-31.6380	0.0000	0.0000;
	42	23	0.01345	0.081141	0.141134	339	339	339	0	0	1	-360	360	155.2160	20.6740	-152.3987	-19.9539	0.0000	0.0000;
	26	89	0.009091	0.062401	0.111417	453	453	453	0	0	1	-360	360	138.9068	-10.1651	-137.4824	6.2982	0.0000	0.0000;
	27	90	0.00868	0.06405	0.096994	427	427	427	0	0	1	-360	360	191.4558	-10.5725	-188.8721	17.7602	0.0000	0.0000;
	145	30	0.016961	0.123659	0.196988	316	316	316	0	0	1	-360	360	71.5931	18.7391	-70.7548	-35.9338	0.0000	0.0000;
	134	33	0.00512	0.02618	0.029621	301	301	301	0	0	1	-360	360	-85.4743	61.1827	85.9429	-62.4007	0.0000	0.0000;
	133	20	0.01068	0.061961	0.094961	385	385	385	0	0	1	-360	360	-148.6613	49.6423	150.8439	-48.5425	0.0000	0.0000;
	163	21	0.014651	0.105891	0.170852	316	316	316	0	0	1	-360	360	93.7140	13.8608	-92.5990	-26.2510	0.0000	0.0000;
	40	108	0.01488	0.08161	0.114805	314	314	314	0	0	1	-360	360	-70.3578	21.9651	71.0576	-32.1360	0.0000	0.0000;
	39	90	0.011159	0.07231	0.103673	324	324	324	0	0	1	-360	360	-114.4902	25.8422	115.7715	-30.2360	0.0000	0.0000;
	177	82	0.005517	0.059484	0.170775	316	316	316	0	0	1	-360	360	-158.8483	-0.5024	160.0421	-6.7260	0.0000	0.0000;
	202	164	0.01176	0.068289	0.102802	324	324	324	0	0	1	-360	360	-223.3056	-13.4825	228.4182	30.9345	0.0000	0.0000;
	193	164	0.016818	0.089091	0.129935	358	358	358	0	0	1	-360	360	-162.9642	-6.7048	166.8149	11.5625	0.0000	0.0000;
	192	163	0.013843	0.087025	0.134842	383	383	383	0	0	1	-360	360	-167.8825	-11.6994	171.2478	16.7275	0.0000	0.0000;
	206	166	0.01676	0.097169	0.148685	269	269	269	0	0	1	-360	360	10.0166	-14.5258	-9.9977	-2.9841	0.0000	0.0000;
	42	10	0.01269	0.074979	0.130196	351	351	351	0	0	1	-360	360	167.5053	19.7633	-164.4340	-16.6628	0.0000	0.0000;
	197	18	0.014091	0.10413	0.15972	316	316	316	0	0	1	-360	360	-39.9795	-22.1922	40.1950	5.0134	0.0000	0.0000;
	99	54	0.003719	0.0438	0.100962	457	457	457	0	0	1	-360	360	-13.4273	4.2363	13.4362	-16.2210	0.0000	0.0000;
	161	81	0.00194	0.02056	0.51584	1178	1178	1178	0	0	1	-360	360	-486.5179	-41.8671	490.9763	35.0341	0.0000	0.0000;
	44	9	0.0015	0.01506	0.4032	1386	1386	1386	0	0	1	-360	360	345.9515	-34.8221	-344.2483	9.4323	0.0000	0.0000;
	184	149	0.00294	0.03463	0.9216	693	693	693	0	0	1	-360	360	-29.4342	-53.9740	29.4584	-45.2311	0.0000	0.0000;
	120	56	0.00169	0.01994	0.50624	831	831	831	0	0	1	-360	360	-23.1687	-0.5070	23.1884	-54.7805	0.0000	0.0000;
	29	92	0.00137	0.01625	0.41184	1386	1386	1386	0	0	1	-360	360	213.2100	-45.8519	-212.6342	7.5458	0.0000	0.0000;
	28	122	0.00231	0.02769	0.70144	1386	1386	1386	0	0	1	-360	360	311.7907	-66.3483	-309.7224	14.0867	0.0000	0.0000;
	25	191	0.00207	0.02474	0.664	1386	1386	1386	0	0	1	-360	360	342.9760	9.1461	-340.6538	-51.2171	0.0000	0.0000;
	119	63	0.0015	0.01788	0.4512	831	831	831	0	0	1	-360	360	88.0272	-25.0182	-87.9217	-23.3795	0.0000	0.0000;
	121	63	0.00469	0.05544	1.4048	831	831	831	0	0	1	-360	360	110.5946	-80.8785	-110.0738	-67.6188	0.0000	0.0000;
	81	31	0.00331	0.03425	0.85888	977	977	977	0	0	1	-360	360	-133.3389	-64.6540	133.9020	-22.0900	0.0000	0.0000;
	91	28	0.00219	0.02369	0.59584	1178	1178	1178	0	0	1	-360	360	-144.9917	-10.8580	145.4208	-49.8019	0.0000	0.0000;
	12	4	0.01674	0.09711	0.144232	427	427	427	0	0	1	-360	360	-218.4933	13.6798	225.6960	11.4182	0.0000	0.0000;
	30	11	0.0057	0.0407	0.06021	316	316	316	0	0	1	-360	360	-16.5402	18.7927	16.5786	-25.3137	0.0000	0.0000;
	24	4	0.004419	0.032229	0.049852	383	383	383	0	0	1	-360	360	179.3599	-3.4884	-178.1809	6.1063	0.0000	0.0000;
	17	7	0.014591	0.11219	0.165528	383	383	383	0	0	1	-360	360	-98.9520	35.3403	100.3973	-43.5144	0.0000	0.0000;
	21	10	0.01211	0.087419	0.140166	316	316	316	0	0	1	-360	360	-21.9883	18.7573	22.1141	-33.8453	0.0000	0.0000;
	26	5	0.009773	0.050516	0.088959	377	377	377	0	0	1	-360	360	193.7494	3.4841	-190.7656	1.1520	0.0000	0.0000;
	17	3	0.01068	0.07895	0.245194	274	274	274	0	0	1	-360	360	76.4924	-11.4999	-75.9686	-13.7085	0.0000	0.0000;
	26	19	0.0057	0.039521	0.075533	440	440	440	0	0	1	-360	360	194.8266	10.2136	-193.0602	-7.1643	0.0000	0.0000;
	27	20	0.0057	0.039521	0.075533	440	440	440	0	0	1	-360	360	284.3493	4.1896	-280.6049	12.5731	0.0000	0.0000;
	13	6	0.00525	0.03988	0.061952	316	316	316	0	0	1	-360	360	-25.6351	-18.1012	25.6759	11.4251	0.0000	0.0000;
	13	12	2.1e-05	0.000207	0	316	316	316	0	0	1	-360	360	-71.0366	-11.8113	71.0376	11.8209	0.0000	0.0000;
	32	13	0.00093	0.00651	0.011132	316	316	316	0	0	1	-360	360	-96.5865	-30.5595	96.6717	29.9126	0.0000	0.0000;
	23	11	0.00205	0.01326	0.022429	385	385	385	0	0	1	-360	360	-3.4773	-18.8666	3.4832	16.3969	0.0000	0.0000;
	33	5	0.007831	0.043	0.04962	301	301	301	0	0	1	-360	360	-110.2977	37.1841	111.1907	-38.2388	0.0000	0.0000;
	19	4	0.00293	0.01599	0.024781	324	324	324	0	0	1	-360	360	132.3574	6.3870	-131.9292	-7.0195	0.0000	0.0000;
	26	1	0.00155	0.01169	0.018198	633	633	633	0	0	1	-360	360	70.3198	75.0110	-70.1848	-76.2160	0.0000	0.0000;
	27	2	0.00155	0.01169	0.018198	633	633	633	0	0	1	-360	360	57.4406	29.2275	-57.3876	-31.0613	0.0000	0.0000;
	27	24	0.003841	0.028531	0.045883	392	392	392	0	0	1	-360	360	264.2298	15.7735	-262.0425	-5.1194	0.0000	0.0000;
	25	9	0.00298	0.03418	0.93504	831	831	831	0	0	1	-360	360	-15.7261	-27.4588	15.7471	-71.3320	0.0000	0.0000;
	28	25	0.00358	0.04262	1.0944	1386	1386	1386	0	0	1	-360	360	484.6787	-21.0991	-476.9458	-5.0764	0.0000	0.0000;
	14	29	0.00336	0.03977	1.02163	1316	1316	1316	0	0	1	-360	360	-430.5905	-52.9804	436.5973	15.1910	0.0000	0.0000;
	8	15	0.00299	0.03675	0.9184	1150	1150	1150	0	0	1	-360	360	133.9245	-72.4148	-133.3982	-18.2822	0.0000	0.0000;
	8	14	0.00112	0.01329	0.341248	1150	1150	1150	0	0	1	-360	360	-183.6500	55.8015	184.0670	-86.4975	0.0000	0.0000;
	31	29	0.00075	0.009	0.22848	1150	1150	1150	0	0	1	-360	360	-304.6537	-10.0257	305.2925	-7.2608	0.0000	0.0000;
	62	58	0.010479	0.060969	0.092047	269	269	269	0	0	1	-360	360	1.2921	7.7641	-1.2766	-18.5843	0.0000	0.0000;
	60	55	0.00882	0.065641	0.100662	274	274	274	0	0	1	-360	360	-36.6914	15.0515	36.8218	-26.1976	0.0000	0.0000;
	66	34	0.011219	0.065581	0.098349	274	274	274	0	0	1	-360	360	15.8734	1.1956	-15.8446	-12.4903	0.0000	0.0000;
	50	34	0.01163	0.07031	0.105802	341	341	341	0	0	1	-360	360	-5.6760	-8.5733	5.6798	-3.6430	0.0000	0.0000;
	58	42	0.00545	0.040211	0.066986	404	404	404	0	0	1	-360	360	-23.6573	-17.2753	23.6915	9.5969	0.0000	0.0000;
	59	43	0.00545	0.040211	0.066986	404	404	404	0	0	1	-360	360	-24.4693	-16.8810	24.5048	9.2130	0.0000	0.0000;
	59	34	0.00837	0.04868	0.073481	379	379	379	0	0	1	-360	360	8.4362	12.7401	-8.4104	-21.1744	0.0000	0.0000;
	67	51	0.003159	0.02076	0.03146	385	385	385	0	0	1	-360	360	68.4296	-8.6885	-68.3003	5.9044	0.0000	0.0000;
	51	38	0.006979	0.051961	0.079666	316	316	316	0	0	1	-360	360	42.1599	5.8209	-42.0458	-14.1039	0.0000	0.0000;
	36	55	0.00374	0.027831	0.042689	274	274	274	0	0	1	-360	360	-76.1942	-10.3121	76.3797	6.6203	0.0000	0.0000;
	37	35	0.00769	0.057271	0.087894	316	316	316	0	0	1	-360	360	36.1984	5.0127	-36.1064	-14.6505	0.0000	0.0000;
	54	37	0.00556	0.04145	0.063598	383	383	383	0	0	1	-360	360	51.5491	2.4715	-51.4235	-9.0912	0.0000	0.0000;
	66	36	0.004521	0.03368	0.051691	392	392	392	0	0	1	-360	360	-56.2178	-11.4668	56.3425	6.3097	0.0000	0.0000;
	66	65	0.00151	0.008781	0.013165	341	341	341	0	0	1	-360	360	40.3444	10.2712	-40.3219	-11.6807	0.0000	0.0000;
	61	42	0.00574	0.042831	0.065727	404	404	404	0	0	1	-360	360	-21.0651	2.5552	21.0885	-10.2163	0.0000	0.0000;
	62	43	0.00707	0.045409	0.069309	314	314	314	0	0	1	-360	360	-20.6001	2.6602	20.6279	-10.7426	0.0000	0.0000;
	61	39	0.01213	0.062151	0.093712	314	314	314	0	0	1	-360	360	-58.3591	-24.1397	58.7402	14.7262	0.0000	0.0000;
	60	40	0.002479	0.017979	0.027588	316	316	316	0	0	1	-360	360	-72.1253	-40.8994	72.2630	38.5239	0.0000	0.0000;
	46	39	0.002401	0.01494	0.022525	341	341	341	0	0	1	-360	360	-73.1020	-15.0508	73.2104	12.9590	0.0000	0.0000;
	49	45	0.00167	0.0189	0.54176	1150	1150	1150	0	0	1	-360	360	-46.3527	12.2558	46.4128	-69.1389	0.0000	0.0000;
	57	53	0.00109	0.01277	0.34176	1150	1150	1150	0	0	1	-360	360	138.3897	25.1025	-138.1793	-59.7081	0.0000	0.0000;
	41	57	0.002259	0.026439	0.70784	1150	1150	1150	0	0	1	-360	360	-19.4117	-116.8286	19.5569	42.7975	0.0000	0.0000;
	63	57	0.00094	0.01097	0.29376	1393	1393	1393	0	0	1	-360	360	-184.7964	36.7290	185.1123	-65.2230	0.0000	0.0000;
	47	64	0.00113	0.01406	0.37488	1386	1386	1386	0	0	1	-360	360	-330.3465	-64.8644	331.5123	38.5753	0.0000	0.0000;
	52	44	0.00176	0.02144	0.57344	1150	1150	1150	0	0	1	-360	360	21.9111	18.9890	-21.8627	-79.5661	0.0000	0.0000;
	95	124	0.004876	0.033616	0.059609	404	404	404	0	0	1	-360	360	-83.8084	-11.9228	84.0980	6.7586	0.0000	0.0000;
	74	105	0.01093	0.059194	0.08439	246	246	246	0	0	1	-360	360	3.8530	-4.5476	-3.8517	-5.5731	0.0000	0.0000;
	105	93	0.001942	0.013926	0.022845	404	404	404	0	0	1	-360	360	72.8844	1.9947	-72.7982	-4.1125	0.0000	0.0000;
	78	84	0.004318	0.029752	0.05264	316	316	316	0	0	1	-360	360	113.5480	-9.7510	-113.0865	6.5720	0.0000	0.0000;
	130	129	0.000661	0.004959	0.007579	379	379	379	0	0	1	-360	360	95.4841	-1.7086	-95.4345	1.1612	0.0000	0.0000;
	106	130	0.005372	0.040393	0.060055	379	379	379	0	0	1	-360	360	-39.9680	-16.3078	40.0468	9.6532	0.0000	0.0000;
	90	130	0.000826	0.005248	0.008683	301	301	301	0	0	1	-360	360	135.6563	7.6854	-135.5309	-7.9446	0.0000	0.0000;
	99	118	0.015888	0.087603	0.116818	314	314	314	0	0	1	-360	360	-60.3859	2.8395	60.8810	-14.1697	0.0000	0.0000;
	80	112	0.002169	0.014587	0.025749	269	269	269	0	0	1	-360	360	-11.8896	-8.2199	11.8930	5.1701	0.0000	0.0000;
	115	100	0.017727	0.116777	0.163611	246	246	246	0	0	1	-360	360	62.0606	-14.0455	-61.4934	-1.9388	0.0000	0.0000;
	125	73	0.00593	0.04093	0.072145	404	404	404	0	0	1	-360	360	49.2132	-1.9881	-49.0940	-5.8806	0.0000	0.0000;
	107	89	0.003905	0.028471	0.044983	383	383	383	0	0	1	-360	360	-85.0463	-5.2777	85.2802	1.5271	0.0000	0.0000;
	117	78	0.008161	0.042417	0.061197	356	356	356	0	0	1	-360	360	-60.4961	3.0771	60.7469	-9.1666	0.0000	0.0000;
	118	77	0.008161	0.042417	0.061197	356	356	356	0	0	1	-360	360	-59.6729	-0.9506	59.9144	-5.1975	0.0000	0.0000;
	78	75	0.005186	0.038388	0.058748	453	453	453	0	0	1	-360	360	132.0352	-12.6806	-131.2847	11.1381	0.0000	0.0000;
	77	72	0.002128	0.014029	0.022603	301	301	301	0	0	1	-360	360	122.9101	3.2908	-122.6448	-4.2784	0.0000	0.0000;
	113	77	0.004628	0.027748	0.046115	324	324	324	0	0	1	-360	360	-94.0780	-20.3926	94.4330	16.9674	0.0000	0.0000;
	102	71	0.011219	0.070744	0.115705	246	246	246	0	0	1	-360	360	-57.4221	-8.1903	57.7328	-3.7272	0.0000	0.0000;
	109	116	0.006012	0.041467	0.073636	383	383	383	0	0	1	-360	360	-86.0819	-6.7777	86.4548	0.4940	0.0000	0.0000;
	90	68	0.002066	0.012789	0.020551	269	269	269	0	0	1	-360	360	73.7982	5.9702	-73.7049	-7.8890	0.0000	0.0000;
	85	89	0.001364	0.009731	0.016243	453	453	453	0	0	1	-360	360	-99.1181	-1.0702	99.2284	-0.1173	0.0000	0.0000;
	128	86	0.000579	0.004112	0.007008	404	404	404	0	0	1	-360	360	-54.2393	-8.2139	54.2536	7.4651	0.0000	0.0000;
	131	75	0.000847	0.00624	0.009544	457	457	457	0	0	1	-360	360	123.5000	31.0000	-123.3864	-31.3172	0.0000	0.0000;
	132	76	0.000847	0.00626	0.009477	457	457	457	0	0	1	-360	360	-0.0000	0.0000	0.0000	-1.1426	0.0000	0.0000;
	101	76	0.001591	0.011116	0.019128	453	453	453	0	0	1	-360	360	-76.6114	-54.3515	76.7275	52.8709	0.0000	0.0000;
	124	103	0.003141	0.021591	0.038391	404	404	404	0	0	1	-360	360	138.5546	-21.5877	-138.0461	20.4429	0.0000	0.0000;
	125	110	0.004545	0.03157	0.055312	316	316	316	0	0	1	-360	360	87.0298	27.6075	-86.7089	-31.9881	0.0000	0.0000;
	103	83	0.001446	0.009917	0.017598	316	316	316	0	0	1	-360	360	-2.2346	16.8029	2.2385	-18.9008	0.0000	0.0000;
	104	94	0.003822	0.026674	0.046154	316	316	316	0	0	1	-360	360	7.9263	20.6124	-7.9070	-26.0270	0.0000	0.0000;
	111	79	0.007769	0.041281	0.063907	269	269	269	0	0	1	-360	360	-6.9442	-14.9271	6.9556	7.4025	0.0000	0.0000;
	88	77	0.004463	0.030413	0.048671	246	246	246	0	0	1	-360	360	-90.4849	-22.9583	90.8063	19.2920	0.0000	0.0000;
	116	107	0.005888	0.035062	0.052349	246	246	246	0	0	1	-360	360	55.9097	-11.1250	-55.7544	5.7210	0.0000	0.0000;
	108	98	0.003161	0.023409	0.036165	316	316	316	0	0	1	-360	360	-49.5633	7.0715	49.6298	-10.9481	0.0000	0.0000;
	115	78	0.001839	0.012603	0.022399	316	316	316	0	0	1	-360	360	-60.3491	2.9085	60.4048	-5.2370	0.0000	0.0000;
	106	87	0.001715	0.009607	0.014239	301	301	301	0	0	1	-360	360	20.9603	29.3360	-20.9410	-30.9310	0.0000	0.0000;
	97	78	0.003409	0.024421	0.039969	246	246	246	0	0	1	-360	360	-64.4475	1.1184	64.5651	-5.1081	0.0000	0.0000;
	116	77	0.001839	0.012603	0.02239	316	316	316	0	0	1	-360	360	-54.8891	-10.9293	54.9363	8.5403	0.0000	0.0000;
	82	96	0.005702	0.041488	0.066172	404	404	404	0	0	1	-360	360	-25.9396	-12.2955	25.9754	4.6875	0.0000	0.0000;
	123	117	0.004587	0.024628	0.036165	314	314	314	0	0	1	-360	360	-76.2380	-10.4465	76.4638	7.3193	0.0000	0.0000;
	123	109	0.002149	0.013327	0.022109	246	246	246	0	0	1	-360	360	-10.9518	-5.2404	10.9542	2.6132	0.0000	0.0000;
	99	70	0.000785	0.004876	0.00726	269	269	269	0	0	1	-360	360	8.0325	2.8450	-8.0320	-3.7140	0.0000	0.0000;
	100	69	0.000785	0.004876	0.007241	269	269	269	0	0	1	-360	360	10.3277	-0.8655	-10.3270	-0.0000	0.0000	0.0000;
	92	126	0.002413	0.027544	0.767968	831	831	831	0	0	1	-360	360	174.1295	-11.1573	-173.4419	-64.3726	0.0000	0.0000;
	81	126	0.002131	0.024319	0.67744	1386	1386	1386	0	0	1	-360	360	35.5839	-55.8220	-35.5509	-16.2872	0.0000	0.0000;
	121	114	0.000913	0.0104	0.289888	1150	1150	1150	0	0	1	-360	360	37.8992	66.5939	-37.8309	-97.5163	0.0000	0.0000;
	122	120	0.003119	0.035631	0.991072	831	831	831	0	0	1	-360	360	127.8970	-62.1227	-127.4326	-41.8018	0.0000	0.0000;
	114	127	0.000919	0.010512	0.292928	1150	1150	1150	0	0	1	-360	360	-66.5539	40.7353	66.6186	-71.6130	0.0000	0.0000;
	172	155	0.01545	0.073349	0.126614	427	427	427	0	0	1	-360	360	-197.7612	20.4845	203.1641	-9.5273	0.0000	0.0000;
	173	154	0.01545	0.073349	0.126614	427	427	427	0	0	1	-360	360	-197.8012	20.5297	203.2067	-9.5595	0.0000	0.0000;
	175	154	0.01457	0.07955	0.14007	324	324	324	0	0	1	-360	360	-69.6290	-2.1392	70.2389	-10.9707	0.0000	0.0000;
	176	155	0.01457	0.07955	0.14007	324	324	324	0	0	1	-360	360	-69.2102	-2.2778	69.8126	-10.8735	0.0000	0.0000;
	175	143	0.006031	0.04401	0.069793	316	316	316	0	0	1	-360	360	71.2397	-6.5350	-70.9771	0.3261	0.0000	0.0000;
	164	139	0.011031	0.08057	0.124127	404	404	404	0	0	1	-360	360	184.9232	-1.6003	-181.8583	8.8922	0.0000	0.0000;
	136	154	0.005831	0.04231	0.070664	383	383	383	0	0	1	-360	360	-103.8216	2.8526	104.3600	-7.2587	0.0000	0.0000;
	169	172	0.01849	0.095599	0.159139	305	305	305	0	0	1	-360	360	-67.0841	34.9864	68.0864	-48.3903	0.0000	0.0000;
	151	173	0.010581	0.053	0.088475	385	385	385	0	0	1	-360	360	-96.0391	20.2154	96.9511	-25.7538	0.0000	0.0000;
	153	155	0.012521	0.091359	0.145394	453	453	453	0	0	1	-360	360	-169.4702	38.8636	172.6950	-32.6616	0.0000	0.0000;
	135	136	0.00506	0.036539	0.063598	305	305	305	0	0	1	-360	360	-46.8579	-2.0796	46.9531	-4.6779	0.0000	0.0000;
	147	142	0.01043	0.077891	0.122065	383	383	383	0	0	1	-360	360	12.3835	5.4868	-12.3562	-20.1841	0.0000	0.0000;
	152	180	0.007702	0.056917	0.086733	316	316	316	0	0	1	-360	360	28.3649	48.0286	-28.1319	-56.4653	0.0000	0.0000;
	152	179	0.002256	0.016674	0.02541	333	333	333	0	0	1	-360	360	-166.2810	-62.8429	166.8700	64.1015	0.0000	0.0000;
	174	146	0.009147	0.089554	0.215196	246	246	246	0	0	1	-360	360	-119.0051	-17.0108	120.0944	1.6360	0.0000	0.0000;
	174	168	0.00244	0.01318	0.021296	341	341	341	0	0	0	-360	360	0.0000	0.0000	0.0000	0.0000	0.0000	0.0000;
	168	139	0.00355	0.02593	0.041237	404	404	404	0	0	1	-360	360	-91.6810	2.5221	91.9313	-5.6328	0.0000	0.0000;
	169	166	0.01312	0.076219	0.116644	324	324	324	0	0	1	-360	360	79.5090	-14.3023	-78.8094	4.4603	0.0000	0.0000;
	168	151	0.009341	0.05225	0.087701	305	305	305	0	0	1	-360	360	-24.0489	48.8961	24.3231	-57.6225	0.0000	0.0000;
	145	134	0.006141	0.032521	0.052456	356	356	356	0	0	1	-360	360	-223.2077	42.4028	225.7997	-35.1313	0.0000	0.0000;
	146	133	0.00438	0.03188	0.050723	453	453	453	0	0	1	-360	360	-231.9105	32.0131	233.8705	-23.9914	0.0000	0.0000;
	163	146	0.000479	0.00331	0.005711	404	404	404	0	0	1	-360	360	-103.1422	53.2868	103.1948	-53.6266	0.0000	0.0000;
	164	145	0.000479	0.00331	0.005711	404	404	404	0	0	1	-360	360	-109.3758	53.6206	109.4336	-53.9239	0.0000	0.0000;
	153	142	0.010539	0.076859	0.122355	316	316	316	0	0	1	-360	360	113.6228	-22.7576	-112.4711	16.3972	0.0000	0.0000;
	158	147	0.00469	0.034651	0.053821	383	383	383	0	0	1	-360	360	-141.8218	-15.7951	142.6088	15.0428	0.0000	0.0000;
	148	140	0.006469	0.0413	0.069212	383	383	383	0	0	1	-360	360	121.2264	5.6491	-120.4495	-9.1409	0.0000	0.0000;
	167	140	0.00105	0.007211	0.01028	316	316	316	0	0	1	-360	360	-39.1104	-7.7865	39.1242	6.6377	0.0000	0.0000;
	167	158	0.006099	0.044831	0.070954	316	316	316	0	0	1	-360	360	-7.5508	-2.9419	7.5538	-5.6089	0.0000	0.0000;
	175	135	0.002211	0.01655	0.024781	316	316	316	0	0	1	-360	360	30.0264	-10.6875	-30.0077	7.9335	0.0000	0.0000;
	177	176	0.005169	0.036979	0.058951	316	316	316	0	0	1	-360	360	70.5311	-8.2812	-70.3103	2.9721	0.0000	0.0000;
	180	172	0.002401	0.017789	0.027588	381	381	381	0	0	1	-360	360	-103.9401	10.2077	104.1707	-11.6435	0.0000	0.0000;
	156	137	0.00274	0.02696	0.70592	977	977	977	0	0	1	-360	360	124.5086	-54.4509	-124.0779	-12.6772	0.0000	0.0000;
	162	138	0.0017	0.01733	0.45632	915	915	915	0	0	1	-360	360	117.9316	17.2400	-117.6749	-61.2628	0.0000	0.0000;
	160	161	0.00136	0.01574	0.433664	1469	1469	1469	0	0	1	-360	360	-130.8963	-26.9678	131.1238	-14.9898	0.0000	0.0000;
	170	150	0.00371	0.04326	1.18688	693	693	693	0	0	1	-360	360	-49.6817	-86.7130	49.7886	-38.9700	0.0000	0.0000;
	187	192	0.01882	0.137581	0.25381	299	299	299	0	0	1	-360	360	-47.7542	-4.5206	48.1393	-22.1874	0.0000	0.0000;
	196	202	0.02756	0.16014	0.242871	269	269	269	0	0	1	-360	360	-40.5724	-3.6460	40.9908	-21.8963	0.0000	0.0000;
	188	207	0.01905	0.11132	0.167851	269	269	269	0	0	1	-360	360	3.9047	-17.0054	-3.8937	-2.6320	0.0000	0.0000;
	190	193	0.00795	0.05919	0.090798	316	316	316	0	0	1	-360	360	-59.7323	1.5949	59.9806	-10.2671	0.0000	0.0000;
	192	181	0.0018	0.021141	0.051498	633	633	633	0	0	1	-360	360	65.1157	11.0615	-65.0468	-16.2056	0.0000	0.0000;
	201	203	0.00731	0.055789	0.083635	274	274	274	0	0	1	-360	360	-59.4108	-1.2697	59.6374	-6.5801	0.0000	0.0000;
	189	200	0.00564	0.041961	0.064372	274	274	274	0	0	1	-360	360	14.0556	12.3291	-14.0334	-19.5670	0.0000	0.0000;
	207	182	0.0057	0.04236	0.129712	366	366	366	0	0	1	-360	360	-68.2756	-8.6626	68.5007	-5.0459	0.0000	0.0000;
	199	183	0.00131	0.01548	0.41152	1150	1150	1150	0	0	1	-360	360	120.5912	-87.2936	-120.3584	46.0825	0.0000	0.0000;
	185	191	0.00224	0.02583	0.72352	831	831	831	0	0	1	-360	360	-95.2145	26.0221	95.4927	-98.8586	0.0000	0.0000;
	194	186	0.0021	0.02475	0.65792	1150	1150	1150	0	0	1	-360	360	-128.2109	-19.8768	128.5392	-46.3752	0.0000	0.0000;
	204	198	0.0015	0.01768	0.46944	831	831	831	0	0	1	-360	360	227.0111	-11.2272	-226.2857	-30.1959	0.0000	0.0000;
	185	204	0.00133	0.01569	0.418208	831	831	831	0	0	1	-360	360	-148.5658	-22.2215	148.8414	-19.1668	0.0000	0.0000;
	186	205	0.00133	0.01569	0.418208	831	831	831	0	0	1	-360	360	-149.1225	-22.0864	149.4002	-19.2785	0.0000	0.0000;
	393	1	0.00157	0.06612	0	160	160	160	1.041	0	1	-360	360	-70.0457	-70.3609	70.1848	76.2160	0.0000	0.0000;
...
];

%%-----  OPF Data  -----%%
%% area data
mpc.areas = [
	1	18;
];

%% generator cost data
%	1	startup	shutdown	n	x1	y1	...	xn	yn
%	2	startup	shutdown	n	c(n-1)	...	c0
mpc.gencost = [
	2	0	0	3	0	112.78	0;
	2	0	0	3	0	112.78	0;
	2	0	0	3	0	76.1	0;
	2	0	0	3	0	76.1	0;
	2	0	0	3	0	76.1	0;
	2	0	0	3	0	76.1	0;
	2	0	0	3	0	76.1	0;
	2	0	0	3	0	76.1	0;
	2	0	0	3	0	76.1	0;
	2	0	0	3	0	76.1	0;
	2	0	0	3	0	76.1	0;
	2	0	0	3	0	76.1	0;
	2	0	0	3	0	76.1	0;
	2	0	0	3	0	102.05	0;
	2	0	0	3	0	102.05	0;
	2	0	0	3	0	102.05	0;
	2	0	0	3	0	102.05	0;
	2	0	0	3	0	102.05	0;
	2	0	0	3	0	102.05	0;
	2	0	0	3	0	102.05	0;
	2	0	0	3	0	102.05	0;
	2	0	0	3	0	105.35	0;
	2	0	0	3	0	105.35	0;
	2	0	0	3	0	105.35	0;
	2	0	0	3	0	105.35	0;
	2	0	0	3	0	105.35	0;
	2	0	0	3	0	105.35	0;
	2	0	0	3	0	105.35	0;
	2	0	0	3	0	0	0;
	2	0	0	3	0	95.31	0;
	2	0	0	3	0	95.31	0;
	2	0	0	3	0	95.31	0;
	2	0	0	3	0	95.31	0;
	2	0	0	3	0	95.31	0;
	2	0	0	3	0	90.03	0;
	2	0	0	3	0	90.03	0;
	2	0	0	3	0	0	0;
	2	0	0	3	0	0	0;
	2	0	0	3	0	92.78	0;
	2	0	0	3	0	92.78	0;
	2	0	0	3	0	94.09	0;
	2	0	0	3	0	94.09	0;
	2	0	0	3	0	97.12	0;
	2	0	0	3	0	97.12	0;
	2	0	0	3	0	99.52	0;
	2	0	0	3	0	91.16	0;
	2	0	0	3	0	91.16	0;
	2	0	0	3	0	91.16	0;
	2	0	0	3	0	91.16	0;
	2	0	0	3	0	91.16	0;
	2	0	0	3	0	0.01	0;
	2	0	0	3	0	0.01	0;
	2	0	0	3	0	0.01	0;
	2	0	0	3	0	0.01	0;
	2	0	0	3	0	92.43	0;
	2	0	0	3	0	92.43	0;
	2	0	0	3	0	92.43	0;
	2	0	0	3	0	96.42	0;
	2	0	0	3	0	96.42	0;
	2	0	0	3	0	96.42	0;
	2	0	0	3	0	116.01	0;
	2	0	0	3	0	116.01	0;
	2	0	0	3	0	116.01	0;
	2	0	0	3	0	116.01	0;
	2	0	0	3	0	116.01	0;
	2	0	0	3	0	116.01	0;
	2	0	0	3	0	116.01	0;
	2	0	0	3	0	98.84	0;
	2	0	0	3	0	98.84	0;
	2	0	0	3	0	98.84	0;
	2	0	0	3	0	98.84	0;
	2	0	0	3	0	98.84	0;
	2	0	0	3	0	98.84	0;
	2	0	0	3	0	98.84	0;
	2	0	0	3	0	98.84	0;
	2	0	0	3	0	98.84	0;
	2	0	0	3	0	89.22	0;
	2	0	0	3	0	89.22	0;
...